//HEAD_DSPH
/*
 <DUALSPHYSICS>  Copyright (c) 2020 by Dr Jose M. Dominguez et al. (see http://dual.sphysics.org/index.php/developers/). 

 EPHYSLAB Environmental Physics Laboratory, Universidade de Vigo, Ourense, Spain.
 School of Mechanical, Aerospace and Civil Engineering, University of Manchester, Manchester, U.K.

 This file is part of DualSPHysics. 

 DualSPHysics is free software: you can redistribute it and/or modify it under the terms of the GNU Lesser General Public License 
 as published by the Free Software Foundation; either version 2.1 of the License, or (at your option) any later version.
 
 DualSPHysics is distributed in the hope that it will be useful, but WITHOUT ANY WARRANTY; without even the implied warranty of
 MERCHANTABILITY or FITNESS FOR A PARTICULAR PURPOSE.  See the GNU Lesser General Public License for more details. 

 You should have received a copy of the GNU Lesser General Public License along with DualSPHysics. If not, see <http://www.gnu.org/licenses/>. 
*/

/// \file JSphGpu_ker.cu \brief Implements functions and CUDA kernels for the Particle Interaction and System Update.

#include "JSphGpu_ker.h"
#include "Functions.h"
#include "FunctionsCuda.h"
#include "JLog2.h"
#include <cfloat>
#include <math_constants.h>
//:#include "JDgKerPrint.h"
//:#include "JDgKerPrint_ker.h"

#pragma warning(disable : 4267) //Cancels "warning C4267: conversion from 'size_t' to 'int', possible loss of data"
#pragma warning(disable : 4244) //Cancels "warning C4244: conversion from 'unsigned __int64' to 'unsigned int', possible loss of data"
#pragma warning(disable : 4503) //Cancels "warning C4503: decorated name length exceeded, name was truncated"
#include <thrust/device_vector.h>
#include <thrust/sort.h>

__constant__ StCteInteraction CTE;
#define CTE_AVAILABLE

namespace cusph{
#include "FunctionsBasic_iker.h"
#include "FunctionsMath_iker.h"
#include "FunctionsGeo3d_iker.h"
#include "FunSphKernel_iker.h"
#include "FunSphEos_iker.h"
#include "JCellSearch_iker.h"


//==============================================================================
/// Reduction using maximum of float values in shared memory for a warp.
/// Reduccion mediante maximo de valores float en memoria shared para un warp.
//==============================================================================
template <unsigned blockSize> __device__ void KerReduMaxFloatWarp(volatile float* sdat,unsigned tid){
  if(blockSize>=64)sdat[tid]=max(sdat[tid],sdat[tid+32]);
  if(blockSize>=32)sdat[tid]=max(sdat[tid],sdat[tid+16]);
  if(blockSize>=16)sdat[tid]=max(sdat[tid],sdat[tid+8]);
  if(blockSize>=8)sdat[tid]=max(sdat[tid],sdat[tid+4]);
  if(blockSize>=4)sdat[tid]=max(sdat[tid],sdat[tid+2]);
  if(blockSize>=2)sdat[tid]=max(sdat[tid],sdat[tid+1]);
}

//==============================================================================
/// Accumulates the maximum of n values of array dat[], storing the result in 
/// the beginning of res[].(Many positions of res[] are used as blocks, 
/// storing the final result in res[0]).
///
/// Acumula el maximo de n valores del vector dat[], guardando el resultado al 
/// principio de res[] (Se usan tantas posiciones del res[] como bloques, 
/// quedando el resultado final en res[0]).
//==============================================================================
template <unsigned blockSize> __global__ void KerReduMaxFloat(unsigned n,unsigned ini,const float *dat,float *res){
  extern __shared__ float sdat[];
  unsigned tid=threadIdx.x;
  unsigned c=blockIdx.x*blockDim.x + threadIdx.x;
  sdat[tid]=(c<n? dat[c+ini]: -FLT_MAX);
  __syncthreads();
  if(blockSize>=512){ if(tid<256)sdat[tid]=max(sdat[tid],sdat[tid+256]);  __syncthreads(); }
  if(blockSize>=256){ if(tid<128)sdat[tid]=max(sdat[tid],sdat[tid+128]);  __syncthreads(); }
  if(blockSize>=128){ if(tid<64) sdat[tid]=max(sdat[tid],sdat[tid+64]);   __syncthreads(); }
  if(tid<32)KerReduMaxFloatWarp<blockSize>(sdat,tid);
  if(tid==0)res[blockIdx.x]=sdat[0];
}

//==============================================================================
/// Returns the maximum of an array, using resu[] as auxiliar array.
/// Size of resu[] must be >= a (N/SPHBSIZE+1)+(N/(SPHBSIZE*SPHBSIZE)+SPHBSIZE)
///
/// Devuelve el maximo de un vector, usando resu[] como vector auxiliar. El tamanho
/// de resu[] debe ser >= a (N/SPHBSIZE+1)+(N/(SPHBSIZE*SPHBSIZE)+SPHBSIZE)
//==============================================================================
float ReduMaxFloat(unsigned ndata,unsigned inidata,float* data,float* resu){
  float resf=0;
  if(ndata>=1){
    unsigned n=ndata,ini=inidata;
    unsigned smemSize=SPHBSIZE*sizeof(float);
    dim3 sgrid=GetSimpleGridSize(n,SPHBSIZE);
    unsigned n_blocks=sgrid.x*sgrid.y;
    float *dat=data;
    float *resu1=resu,*resu2=resu+n_blocks;
    float *res=resu1;
    while(n>1){
      KerReduMaxFloat<SPHBSIZE><<<sgrid,SPHBSIZE,smemSize>>>(n,ini,dat,res);
      n=n_blocks; ini=0;
      sgrid=GetSimpleGridSize(n,SPHBSIZE);  
      n_blocks=sgrid.x*sgrid.y;
      if(n>1){
        dat=res; res=(dat==resu1? resu2: resu1); 
      }
    }
    if(ndata>1)cudaMemcpy(&resf,res,sizeof(float),cudaMemcpyDeviceToHost);
    else cudaMemcpy(&resf,data,sizeof(float),cudaMemcpyDeviceToHost);
  }
  //else{//-Using Thrust library is slower than ReduMasFloat() with ndata < 5M.
  //  thrust::device_ptr<float> dev_ptr(data);
  //  resf=thrust::reduce(dev_ptr,dev_ptr+ndata,-FLT_MAX,thrust::maximum<float>());
  //}
  return(resf);
}

//==============================================================================
/// Accumulates the sum of n values of array dat[], storing the result in 
/// the beginning of res[].(Many positions of res[] are used as blocks, 
/// storing the final result in res[0]).
///
/// Acumula la suma de n valores del vector dat[].w, guardando el resultado al 
/// principio de res[] (Se usan tantas posiciones del res[] como bloques, 
/// quedando el resultado final en res[0]).
//==============================================================================
template <unsigned blockSize> __global__ void KerReduMaxFloat_w(unsigned n,unsigned ini,const float4 *dat,float *res){
  extern __shared__ float sdat[];
  unsigned tid=threadIdx.x;
  unsigned c=blockIdx.x*blockDim.x + threadIdx.x;
  sdat[tid]=(c<n? dat[c+ini].w: -FLT_MAX);
  __syncthreads();
  if(blockSize>=512){ if(tid<256)sdat[tid]=max(sdat[tid],sdat[tid+256]);  __syncthreads(); }
  if(blockSize>=256){ if(tid<128)sdat[tid]=max(sdat[tid],sdat[tid+128]);  __syncthreads(); }
  if(blockSize>=128){ if(tid<64) sdat[tid]=max(sdat[tid],sdat[tid+64]);   __syncthreads(); }
  if(tid<32)KerReduMaxFloatWarp<blockSize>(sdat,tid);
  if(tid==0)res[blockIdx.x]=sdat[0];
}

//==============================================================================
/// Returns the maximum of an array, using resu[] as auxiliar array.
/// Size of resu[] must be >= a (N/SPHBSIZE+1)+(N/(SPHBSIZE*SPHBSIZE)+SPHBSIZE).
///
/// Devuelve el maximo de la componente w de un vector float4, usando resu[] como 
/// vector auxiliar. El tamanho de resu[] debe ser >= a (N/SPHBSIZE+1)+(N/(SPHBSIZE*SPHBSIZE)+SPHBSIZE).
//==============================================================================
float ReduMaxFloat_w(unsigned ndata,unsigned inidata,float4* data,float* resu){
  unsigned n=ndata,ini=inidata;
  unsigned smemSize=SPHBSIZE*sizeof(float);
  dim3 sgrid=GetSimpleGridSize(n,SPHBSIZE);
  unsigned n_blocks=sgrid.x*sgrid.y;
  float *dat=NULL;
  float *resu1=resu,*resu2=resu+n_blocks;
  float *res=resu1;
  while(n>1){
    if(!dat)KerReduMaxFloat_w<SPHBSIZE><<<sgrid,SPHBSIZE,smemSize>>>(n,ini,data,res);
    else KerReduMaxFloat<SPHBSIZE><<<sgrid,SPHBSIZE,smemSize>>>(n,ini,dat,res);
    n=n_blocks; ini=0;
    sgrid=GetSimpleGridSize(n,SPHBSIZE);  
    n_blocks=sgrid.x*sgrid.y;
    if(n>1){
      dat=res; res=(dat==resu1? resu2: resu1); 
    }
  }
  float resf;
  if(ndata>1)cudaMemcpy(&resf,res,sizeof(float),cudaMemcpyDeviceToHost);
  else{
    float4 resf4;
    cudaMemcpy(&resf4,data,sizeof(float4),cudaMemcpyDeviceToHost);
    resf=resf4.w;
  }
  return(resf);
}

//==============================================================================
/// Stores constants for the GPU interaction.
/// Graba constantes para la interaccion a la GPU.
//==============================================================================
void CteInteractionUp(const StCteInteraction *cte){
  cudaMemcpyToSymbol(CTE,cte,sizeof(StCteInteraction));
}

//------------------------------------------------------------------------------
/// Initialises array with the indicated value.
/// Inicializa array con el valor indicado.
//------------------------------------------------------------------------------
__global__ void KerInitArray(unsigned n,float3 *v,float3 value)
{
  unsigned p=blockIdx.x*blockDim.x + threadIdx.x; //-Number of particle.
  if(p<n)v[p]=value;
}

//==============================================================================
/// Initialises array with the indicated value.
/// Inicializa array con el valor indicado.
//==============================================================================
void InitArray(unsigned n,float3 *v,tfloat3 value){
  if(n){
    dim3 sgrid=GetSimpleGridSize(n,SPHBSIZE);
    KerInitArray <<<sgrid,SPHBSIZE>>> (n,v,Float3(value));
  }
}

//------------------------------------------------------------------------------
/// Sets v[].y to zero.
/// Pone v[].y a cero.
//------------------------------------------------------------------------------
__global__ void KerResety(unsigned n,unsigned ini,float3 *v)
{
  unsigned p=blockIdx.x*blockDim.x + threadIdx.x; //-Number of particle.
  if(p<n)v[p+ini].y=0;
}

//==============================================================================
/// Sets v[].y to zero.
/// Pone v[].y a cero.
//==============================================================================
void Resety(unsigned n,unsigned ini,float3 *v){
  if(n){
    dim3 sgrid=GetSimpleGridSize(n,SPHBSIZE);
    KerResety <<<sgrid,SPHBSIZE>>> (n,ini,v);
  }
}

//------------------------------------------------------------------------------
/// Calculates module^2 of ace.
//------------------------------------------------------------------------------
__global__ void KerComputeAceMod(unsigned n,const float3 *ace,float *acemod)
{
  unsigned p=blockIdx.x*blockDim.x + threadIdx.x; //-Number of particle.
  if(p<n){
    const float3 r=ace[p];
    acemod[p]=r.x*r.x+r.y*r.y+r.z*r.z;
  }
}

//==============================================================================
/// Calculates module^2 of ace.
//==============================================================================
void ComputeAceMod(unsigned n,const float3 *ace,float *acemod){
  if(n){
    dim3 sgrid=GetSimpleGridSize(n,SPHBSIZE);
    KerComputeAceMod <<<sgrid,SPHBSIZE>>> (n,ace,acemod);
  }
}

//------------------------------------------------------------------------------
/// Calculates module^2 of ace, comprobando que la particula sea normal.
/// Uses zero for periodic particles.
//------------------------------------------------------------------------------
__global__ void KerComputeAceMod(unsigned n,const typecode *code,const float3 *ace,float *acemod)
{
  unsigned p=blockIdx.x*blockDim.x + threadIdx.x; //-Number of particle.
  if(p<n){
    const typecode rcod=code[p];
    const float3 r=(CODE_IsNormal(rcod) && !CODE_IsFluidInout(rcod)? ace[p]: make_float3(0,0,0));
    acemod[p]=r.x*r.x+r.y*r.y+r.z*r.z;
  }
}

//==============================================================================
/// Calculates module^2 of ace, comprobando que la particula sea normal.
/// Uses zero for periodic particles.
//==============================================================================
void ComputeAceMod(unsigned n,const typecode *code,const float3 *ace,float *acemod){
  if(n){
    dim3 sgrid=GetSimpleGridSize(n,SPHBSIZE);
    KerComputeAceMod <<<sgrid,SPHBSIZE>>> (n,code,ace,acemod);
  }
}


//##############################################################################
//# Other kernels...
//# Otros kernels...
//##############################################################################
//------------------------------------------------------------------------------
/// Calculates module^2 of vel.
//------------------------------------------------------------------------------
__global__ void KerComputeVelMod(unsigned n,const float4 *vel,float *velmod)
{
  unsigned p=blockIdx.x*blockDim.x + threadIdx.x; //-Number of particle.
  if(p<n){
    const float4 r=vel[p];
    velmod[p]=r.x*r.x+r.y*r.y+r.z*r.z;
  }
}

//==============================================================================
/// Calculates module^2 of vel.
//==============================================================================
void ComputeVelMod(unsigned n,const float4 *vel,float *velmod){
  if(n){
    dim3 sgrid=GetSimpleGridSize(n,SPHBSIZE);
    KerComputeVelMod <<<sgrid,SPHBSIZE>>> (n,vel,velmod);
  }
}


//##############################################################################
//# Kernels para cambiar la posicion.
//# Kernels for changing the position.
//##############################################################################
//------------------------------------------------------------------------------
/// Updates pos, dcell and code from the indicated displacement.
/// The code may be CODE_OUTRHOP because in ComputeStepVerlet / Symplectic this is evaluated
/// and is executed before ComputeStepPos.
/// Checks limits depending on maprealposmin and maprealsize, this is valid 
/// for single-GPU because maprealpos and domrealpos are equal. For multi-gpu it is
/// important to mark particles that leave the domain without leaving the map.
///
/// Actualiza pos, dcell y code a partir del desplazamiento indicado.
/// Code puede ser CODE_OUTRHOP pq en ComputeStepVerlet/Symplectic se evalua esto 
/// y se ejecuta antes que ComputeStepPos.
/// Comprueba los limites en funcion de maprealposmin y maprealsize esto es valido
/// para single-gpu pq domrealpos y maprealpos son iguales. Para multi-gpu seria 
/// necesario marcar las particulas q salgan del dominio sin salir del mapa.
//------------------------------------------------------------------------------
template<bool periactive> __device__ void KerUpdatePos
  (double2 rxy,double rz,double movx,double movy,double movz
  ,bool outrhop,unsigned p,double2 *posxy,double *posz,unsigned *dcell,typecode *code)
{
  //-Checks validity of displacement. | Comprueba validez del desplazamiento.
  const bool outmove=(fmaxf(fabsf(float(movx)),fmaxf(fabsf(float(movy)),fabsf(float(movz))))>CTE.movlimit);
  //-Applies diplacement.
  double3 rpos=make_double3(rxy.x,rxy.y,rz);
  rpos.x+=movx; rpos.y+=movy; rpos.z+=movz;
  if(rpos.y<0 && CTE.symmetry)rpos.y=-rpos.y; //<vs_syymmetry>
  //-Checks limits of real domain. | Comprueba limites del dominio reales.
  double dx=rpos.x-CTE.maprealposminx;
  double dy=rpos.y-CTE.maprealposminy;
  double dz=rpos.z-CTE.maprealposminz;
  bool out=(dx!=dx || dy!=dy || dz!=dz || dx<0 || dy<0 || dz<0 || dx>=CTE.maprealsizex || dy>=CTE.maprealsizey || dz>=CTE.maprealsizez);
  if(periactive && out){
    bool xperi=(CTE.periactive&1),yperi=(CTE.periactive&2),zperi=(CTE.periactive&4);
    if(xperi){
      if(dx<0)                { dx-=CTE.xperincx; dy-=CTE.xperincy; dz-=CTE.xperincz; }
      if(dx>=CTE.maprealsizex){ dx+=CTE.xperincx; dy+=CTE.xperincy; dz+=CTE.xperincz; }
    }
    if(yperi){
      if(dy<0)                { dx-=CTE.yperincx; dy-=CTE.yperincy; dz-=CTE.yperincz; }
      if(dy>=CTE.maprealsizey){ dx+=CTE.yperincx; dy+=CTE.yperincy; dz+=CTE.yperincz; }
    }
    if(zperi){
      if(dz<0)                { dx-=CTE.zperincx; dy-=CTE.zperincy; dz-=CTE.zperincz; }
      if(dz>=CTE.maprealsizez){ dx+=CTE.zperincx; dy+=CTE.zperincy; dz+=CTE.zperincz; }
    }
    bool outx=!xperi && (dx<0 || dx>=CTE.maprealsizex);
    bool outy=!yperi && (dy<0 || dy>=CTE.maprealsizey);
    bool outz=!zperi && (dz<0 || dz>=CTE.maprealsizez);
    out=(outx||outy||outz);
    rpos=make_double3(dx+CTE.maprealposminx,dy+CTE.maprealposminy,dz+CTE.maprealposminz);
  }
  //-Stores updated position.
  posxy[p]=make_double2(rpos.x,rpos.y);
  posz[p]=rpos.z;
  //-Stores cell and check. | Guarda celda y check.
  if(outrhop || outmove || out){//-Particle out. Only brands as excluded normal particles (not periodic). | Particle out. Solo las particulas normales (no periodicas) se pueden marcar como excluidas.
    typecode rcode=code[p];
    if(out)rcode=CODE_SetOutPos(rcode);
    else if(outrhop)rcode=CODE_SetOutRhop(rcode);
    else rcode=CODE_SetOutMove(rcode);
    code[p]=rcode;
    dcell[p]=DCEL_CodeMapOut;
  }
  else{//-Particle in.
    if(periactive){
      dx=rpos.x-CTE.domposminx;
      dy=rpos.y-CTE.domposminy;
      dz=rpos.z-CTE.domposminz;
    }
    const unsigned cx=unsigned(dx/CTE.scell);
    const unsigned cy=unsigned(dy/CTE.scell);
    const unsigned cz=unsigned(dz/CTE.scell);
    dcell[p]=DCEL_Cell(CTE.cellcode,cx,cy,cz);
  }
}

//------------------------------------------------------------------------------
/// Returns the corrected position after applying periodic conditions.
/// Devuelve la posicion corregida tras aplicar condiciones periodicas.
//------------------------------------------------------------------------------
__device__ double3 KerUpdatePeriodicPos(double3 ps)
{
  double dx=ps.x-CTE.maprealposminx;
  double dy=ps.y-CTE.maprealposminy;
  double dz=ps.z-CTE.maprealposminz;
  const bool out=(dx!=dx || dy!=dy || dz!=dz || dx<0 || dy<0 || dz<0 || dx>=CTE.maprealsizex || dy>=CTE.maprealsizey || dz>=CTE.maprealsizez);
  //-Adjusts position according to periodic conditions and rechecks domain limits.
  //-Ajusta posicion segun condiciones periodicas y vuelve a comprobar los limites del dominio.
  if(out){
    bool xperi=(CTE.periactive&1),yperi=(CTE.periactive&2),zperi=(CTE.periactive&4);
    if(xperi){
      if(dx<0)                { dx-=CTE.xperincx; dy-=CTE.xperincy; dz-=CTE.xperincz; }
      if(dx>=CTE.maprealsizex){ dx+=CTE.xperincx; dy+=CTE.xperincy; dz+=CTE.xperincz; }
    }
    if(yperi){
      if(dy<0)                { dx-=CTE.yperincx; dy-=CTE.yperincy; dz-=CTE.yperincz; }
      if(dy>=CTE.maprealsizey){ dx+=CTE.yperincx; dy+=CTE.yperincy; dz+=CTE.yperincz; }
    }
    if(zperi){
      if(dz<0)                { dx-=CTE.zperincx; dy-=CTE.zperincy; dz-=CTE.zperincz; }
      if(dz>=CTE.maprealsizez){ dx+=CTE.zperincx; dy+=CTE.zperincy; dz+=CTE.zperincz; }
    }
    ps=make_double3(dx+CTE.maprealposminx,dy+CTE.maprealposminy,dz+CTE.maprealposminz);
  }
  return(ps);
}


//##############################################################################
//# Kernels for calculating forces (Pos-Double).
//# Kernels para calculo de fuerzas (Pos-Double).
//##############################################################################
//------------------------------------------------------------------------------
/// Interaction of a particle with a set of particles. Bound-Fluid/Float
/// Realiza la interaccion de una particula con un conjunto de ellas. Bound-Fluid/Float
//------------------------------------------------------------------------------
template<TpKernel tker,TpFtMode ftmode,bool symm>
  __device__ void KerInteractionForcesBoundBox
  (unsigned p1,const unsigned &pini,const unsigned &pfin
  ,const float *ftomassp
  ,const float4 *poscell,const float4 *velrhop,const typecode *code,const unsigned* idp
  ,float massf,const float4 &pscellp1,const float4 &velrhop1,float &arp1,float &visc)
{
  for(int p2=pini;p2<pfin;p2++){
    const float4 pscellp2=poscell[p2];
    float drx=pscellp1.x-pscellp2.x + CTE.poscellsize*(PSCEL_GetfX(pscellp1.w)-PSCEL_GetfX(pscellp2.w));
    float dry=pscellp1.y-pscellp2.y + CTE.poscellsize*(PSCEL_GetfY(pscellp1.w)-PSCEL_GetfY(pscellp2.w));
    float drz=pscellp1.z-pscellp2.z + CTE.poscellsize*(PSCEL_GetfZ(pscellp1.w)-PSCEL_GetfZ(pscellp2.w));
    if(symm)dry=pscellp1.y+pscellp2.y + CTE.poscellsize*PSCEL_GetfY(pscellp2.w); //<vs_syymmetry>
    const float rr2=drx*drx+dry*dry+drz*drz;
    if(rr2<=CTE.kernelsize2 && rr2>=ALMOSTZERO){
      //-Computes kernel.
      const float fac=cufsph::GetKernel_Fac<tker>(rr2);
      const float frx=fac*drx,fry=fac*dry,frz=fac*drz; //-Gradients.

      float4 velrhop2=velrhop[p2];
      if(symm)velrhop2.y=-velrhop2.y; //<vs_syymmetry>
      //-Obtains particle mass p2 if there are floating bodies.
      //-Obtiene masa de particula p2 en caso de existir floatings.
      float ftmassp2;    //-Contains mass of floating body or massf if fluid. | Contiene masa de particula floating o massf si es fluid.
      bool compute=true; //-Deactivated when DEM is used and is float-float or float-bound. | Se desactiva cuando se usa DEM y es float-float o float-bound.
      if(USE_FLOATING){
        const typecode cod=code[p2];
        bool ftp2=CODE_IsFloating(cod);
        ftmassp2=(ftp2? ftomassp[CODE_GetTypeValue(cod)]: massf);
        compute=!(USE_FTEXTERNAL && ftp2); //-Deactivated when DEM or Chrono is used and is bound-float. | Se desactiva cuando se usa DEM o Chrono y es bound-float.
      }

      if(compute){
        //-Density derivative (Continuity equation).
        const float dvx=velrhop1.x-velrhop2.x, dvy=velrhop1.y-velrhop2.y, dvz=velrhop1.z-velrhop2.z;
        arp1+=(USE_FLOATING? ftmassp2: massf)*(dvx*frx+dvy*fry+dvz*frz)*(velrhop1.w/velrhop2.w);

        {//===== Viscosity ===== 
          const float dot=drx*dvx + dry*dvy + drz*dvz;
          const float dot_rr2=dot/(rr2+CTE.eta2);
          visc=max(dot_rr2,visc); 
        }
      }
    }
  }
}

//------------------------------------------------------------------------------
/// Particle interaction. Bound-Fluid/Float
/// Realiza interaccion entre particulas. Bound-Fluid/Float
//------------------------------------------------------------------------------
template<TpKernel tker,TpFtMode ftmode,bool symm> 
  __global__ void KerInteractionForcesBound(unsigned n,unsigned pinit
  ,int scelldiv,int4 nc,int3 cellzero,const int2 *beginendcellfluid,const unsigned *dcell
  ,const float *ftomassp
  ,const float4 *poscell,const float4 *velrhop,const typecode *code,const unsigned *idp
  ,float *viscdt,float *ar)
{
  const unsigned p=blockIdx.x*blockDim.x + threadIdx.x; //-Number of thread.
  if(p<n){
    const unsigned p1=p+pinit;      //-Number of particle.
    float visc=0,arp1=0;

    //-Loads particle p1 data.
    const float4 pscellp1=poscell[p1];
    const float4 velrhop1=velrhop[p1];
    const bool rsymp1=(symm && PSCEL_GetPartY(__float_as_uint(pscellp1.w))==0); //<vs_syymmetry>
    
    //-Obtains neighborhood search limits.
    int ini1,fin1,ini2,fin2,ini3,fin3;
    cunsearch::InitCte(dcell[p1],scelldiv,nc,cellzero,ini1,fin1,ini2,fin2,ini3,fin3);

    //-Boundary-Fluid interaction.
    for(int c3=ini3;c3<fin3;c3+=nc.w)for(int c2=ini2;c2<fin2;c2+=nc.x){
      unsigned pini,pfin=0;  cunsearch::ParticleRange(c2,c3,ini1,fin1,beginendcellfluid,pini,pfin);
      if(pfin){
                          KerInteractionForcesBoundBox<tker,ftmode,false> (p1,pini,pfin,ftomassp,poscell,velrhop,code,idp,CTE.massf,pscellp1,velrhop1,arp1,visc);
        if(symm && rsymp1)KerInteractionForcesBoundBox<tker,ftmode,true > (p1,pini,pfin,ftomassp,poscell,velrhop,code,idp,CTE.massf,pscellp1,velrhop1,arp1,visc);
      }
    }
    //-Stores results.
    if(arp1 || visc){
      ar[p1]+=arp1;
      if(visc>viscdt[p1])viscdt[p1]=visc;
    }
  }
}


  //##############################################################################
  //------------------------------------------------------------------------------
  /// Interaction of a particle with a set of particles. Bound-Fluid/Float
  /// Realiza la interaccion de una particula con un conjunto de ellas. Bound-Fluid/Float
  //------------------------------------------------------------------------------
  template<TpKernel tker, TpFtMode ftmode, bool symm>
  __device__ void KerInteractionForcesBoundDummyBox
  (unsigned p1, const unsigned& pini, const unsigned& pfin, const float* ftomassp
      , const float4* poscell, const float4* velrhop, const typecode* code, const unsigned* idp
      , float massf, const float4& pscellp1, const float4& velrhop1, float& arp1, float& visc, float& pressp1
      , float& kernelsum)
  {
      for (int p2 = pini; p2 < pfin; p2++) {
          const float4 pscellp2 = poscell[p2];
          float drx = pscellp1.x - pscellp2.x + CTE.poscellsize * (PSCEL_GetfX(pscellp1.w) - PSCEL_GetfX(pscellp2.w));
          float dry = pscellp1.y - pscellp2.y + CTE.poscellsize * (PSCEL_GetfY(pscellp1.w) - PSCEL_GetfY(pscellp2.w));
          float drz = pscellp1.z - pscellp2.z + CTE.poscellsize * (PSCEL_GetfZ(pscellp1.w) - PSCEL_GetfZ(pscellp2.w));
          if (symm)dry = pscellp1.y + pscellp2.y + CTE.poscellsize * PSCEL_GetfY(pscellp2.w); //<vs_syymmetry>
          const float rr2 = drx * drx + dry * dry + drz * drz;
          if (rr2 <= CTE.kernelsize2 && rr2 >= ALMOSTZERO) {
              //-Computes kernel.
              const float wab = cufsph::GetKernel_Wab<tker>(rr2);
              //pressp1 += (p);
              kernelsum += wab;
              const float fac = cufsph::GetKernel_Fac<tker>(rr2);
              const float frx = fac * drx, fry = fac * dry, frz = fac * drz; //-Gradients.
              float4 velrhop2 = velrhop[p2];
              if (symm)velrhop2.y = -velrhop2.y; //<vs_syymmetry>
              //-Obtains particle mass p2 if there are floating bodies.
              //-Obtiene masa de particula p2 en caso de existir floatings.
              float ftmassp2;    //-Contains mass of floating body or massf if fluid. | Contiene masa de particula floating o massf si es fluid.
              bool compute = true; //-Deactivated when DEM is used and is float-float or float-bound. | Se desactiva cuando se usa DEM y es float-float o float-bound.
              if (USE_FLOATING) {
                  const typecode cod = code[p2];
                  bool ftp2 = CODE_IsFloating(cod);
                  ftmassp2 = (ftp2 ? ftomassp[CODE_GetTypeValue(cod)] : massf);
                  compute = !(USE_FTEXTERNAL && ftp2); //-Deactivated when DEM or Chrono is used and is bound-float. | Se desactiva cuando se usa DEM o Chrono y es bound-float.
              }

              if (compute) {
                  float pressp2 = cufsph::ComputePressCte(velrhop2.w);
                  pressp2 *= (pressp2 >= 0.0f);
                  //pressp1 += (pressp2 + (CTE.gravity.x * drx + CTE.gravity.y * dry + CTE.gravity.z * drz) * velrhop2.w) * wab;
                  float pressp2top1 = (pressp2 + (CTE.gravity.x * drx + CTE.gravity.y * dry + CTE.gravity.z * drz) * velrhop2.w) * wab;
                  pressp1 += fmaxf(pressp2top1, 0.0f);
                  //-Density derivative (Continuity equation).
                  const float dvx = velrhop1.x - velrhop2.x, dvy = velrhop1.y - velrhop2.y, dvz = velrhop1.z - velrhop2.z;
                  //arp1 += (USE_FLOATING ? ftmassp2 : massf) * (dvx * frx + dvy * fry + dvz * frz) * (velrhop1.w / velrhop2.w);
                  arp1 = 0;

                  {//===== Viscosity ===== 
                      const float dot = drx * dvx + dry * dvy + drz * dvz;
                      const float dot_rr2 = dot / (rr2 + CTE.eta2);
                      visc = max(dot_rr2, visc);
                  }
              }
          }
      }
  }

//------------------------------------------------------------------------------
/// Particle interaction. Bound-Fluid/Float
/// Realiza interaccion entre particulas. Bound-Fluid/Float
//------------------------------------------------------------------------------
  template<TpKernel tker, TpFtMode ftmode, bool symm>
  __global__ void KerInteractionForcesBoundDummy(unsigned n, unsigned pinit
      , int scelldiv, int4 nc, int3 cellzero, const int2* beginendcellfluid, const unsigned* dcell
      , const float* ftomassp, const float4* poscell, float4* velrhop, const typecode* code, const unsigned* idp
      , float* viscdt, float* ar, float* psi)
  {
      const unsigned p = blockIdx.x * blockDim.x + threadIdx.x; //-Number of thread.
      if (p < n) {
          const unsigned p1 = p + pinit;      //-Number of particle.
          float visc = 0, arp1 = 0;
          float pressP1 = 0, kernelSum = 0;

          //-Loads particle p1 data.
          const float4 pscellp1 = poscell[p1];
          const float4 velrhop1 = velrhop[p1];
          const bool rsymp1 = (symm && PSCEL_GetPartY(__float_as_uint(pscellp1.w)) == 0); //<vs_syymmetry>

          //-Obtains neighborhood search limits.
          int ini1, fin1, ini2, fin2, ini3, fin3;
          cunsearch::InitCte(dcell[p1], scelldiv, nc, cellzero, ini1, fin1, ini2, fin2, ini3, fin3);

          //-Boundary-Fluid interaction.
          for (int c3 = ini3; c3 < fin3; c3 += nc.w)for (int c2 = ini2; c2 < fin2; c2 += nc.x) {
              unsigned pini, pfin = 0;  cunsearch::ParticleRange(c2, c3, ini1, fin1, beginendcellfluid, pini, pfin);
              if (pfin) {
                  KerInteractionForcesBoundDummyBox<tker, ftmode, false>(p1, pini, pfin, ftomassp, poscell, velrhop, code, idp, CTE.massf, pscellp1, velrhop1, arp1, visc, pressP1, kernelSum);
                  if (symm && rsymp1)KerInteractionForcesBoundDummyBox<tker, ftmode, true >(p1, pini, pfin, ftomassp, poscell, velrhop, code, idp, CTE.massf, pscellp1, velrhop1, arp1, visc, pressP1, kernelSum);
              }
          }
          if (kernelSum) {
              pressP1 = pressP1 / kernelSum;
              velrhop[p1].w = cufsph::ComputeRhoCte(pressP1);
          }
          else velrhop[p1].w = CTE.rhopzero;

          //if(psi)psi[p1] = 0;//-Dirichlet Boundary conKerInteractionForcesFluidBoxditions for PSI is recommended
          //-Stores results.
          if (arp1 || visc) {
              ar[p1] += arp1;
              if (visc > viscdt[p1])viscdt[p1] = visc;
          }
      }
  }

//------------------------------------------------------------------------------
/// Interaction of a particle with a set of particles. (Fluid/Float-Fluid/Float/Bound)
/// Realiza la interaccion de una particula con un conjunto de ellas. (Fluid/Float-Fluid/Float/Bound)
//------------------------------------------------------------------------------
template<TpKernel tker,TpFtMode ftmode,bool lamsps,TpDensity tdensity,bool shift,bool symm>
  __device__ void KerInteractionForcesFluidBox(bool boundp2,unsigned p1
  ,const unsigned &pini,const unsigned &pfin,float visco
  ,const float *ftomassp,const float2 *tauff,const float3 *dengradcorr
  ,const float4 *poscell,const float4 *velrhop,const typecode *code,const unsigned *idp
  ,const float3 *normalvec
  ,float massp2,bool ftp1
  ,const float4 &pscellp1,const float4 &velrhop1,float pressp1
  ,const float2 &taup1_xx_xy,const float2 &taup1_xz_yy,const float2 &taup1_yz_zz
  ,float2 &grap1_xx_xy,float2 &grap1_xz_yy,float2 &grap1_yz_zz
  ,float3 &acep1,float &arp1,float &visc,float &deltap1
  ,TpShifting shiftmode,float4 &shiftposfsp1,const unsigned &pardetp1
  ,bool hpdc, const float& psip1, const float* psi, float& apsip1)
{
  for(int p2=pini;p2<pfin;p2++){
    const float4 pscellp2=poscell[p2];
    float drx=pscellp1.x-pscellp2.x + CTE.poscellsize*(PSCEL_GetfX(pscellp1.w)-PSCEL_GetfX(pscellp2.w));
    float dry=pscellp1.y-pscellp2.y + CTE.poscellsize*(PSCEL_GetfY(pscellp1.w)-PSCEL_GetfY(pscellp2.w));
    float drz=pscellp1.z-pscellp2.z + CTE.poscellsize*(PSCEL_GetfZ(pscellp1.w)-PSCEL_GetfZ(pscellp2.w));
    if(symm)dry=pscellp1.y+pscellp2.y + CTE.poscellsize*PSCEL_GetfY(pscellp2.w); //<vs_syymmetry>
    const float rr2=drx*drx+dry*dry+drz*drz;
    if(rr2<=CTE.kernelsize2 && rr2>=ALMOSTZERO){
      //-Computes kernel.
      const float fac=cufsph::GetKernel_Fac<tker>(rr2);
      const float frx=fac*drx,fry=fac*dry,frz=fac*drz; //-Gradients.

      //-Obtains mass of particle p2 if any floating bodies exist.
      //-Obtiene masa de particula p2 en caso de existir floatings.
      bool ftp2=false;         //-Indicates if it is floating. | Indica si es floating.
      float ftmassp2;    //-Contains mass of floating body or massf if fluid. | Contiene masa de particula floating o massp2 si es bound o fluid.
      bool compute=true; //-Deactivated when DEM is used and is float-float or float-bound. | Se desactiva cuando se usa DEM y es float-float o float-bound.
      if(USE_FLOATING){
        const typecode cod=code[p2];
        ftp2=CODE_IsFloating(cod);
        ftmassp2=(ftp2? ftomassp[CODE_GetTypeValue(cod)]: massp2);
        #ifdef DELTA_HEAVYFLOATING
          if(ftp2 && tdensity==DDT_DDT && ftmassp2<=(massp2*1.2f))deltap1=FLT_MAX;
        #else
          if(ftp2 && tdensity==DDT_DDT)deltap1=FLT_MAX;
        #endif
        if(ftp2 && shift && shiftmode==SHIFT_NoBound)shiftposfsp1.x=FLT_MAX; //-Cancels shifting with floating bodies. | Con floatings anula shifting.
        compute=!(USE_FTEXTERNAL && ftp1 && (boundp2 || ftp2)); //-Deactivated when DEM or Chrono is used and is float-float or float-bound. | Se desactiva cuando se usa DEM o Chrono y es float-float o float-bound.
      }

      float4 velrhop2=velrhop[p2];
      if(symm)velrhop2.y=-velrhop2.y; //<vs_syymmetry>
            
      //-Velocity derivative (Momentum equation).
      //if(compute){
      //  const float pressp2=cufsph::ComputePressCte(velrhop2.w);
      //  const float prs=(pressp1+pressp2)/(velrhop1.w*velrhop2.w)
      //    +(tker==KERNEL_Cubic? cufsph::GetKernelCubic_Tensil(rr2,velrhop1.w,pressp1,velrhop2.w,pressp2): 0);
      //  const float p_vpm=-prs*(USE_FLOATING? ftmassp2: massp2);
      //  acep1.x+=p_vpm*frx; acep1.y+=p_vpm*fry; acep1.z+=p_vpm*frz;
      //}
      
      ////-One-side riemann sph problem
      float pressp2 = cufsph::ComputePressCte(velrhop2.w);
      float rr = sqrt(rr2);
      float3 eij = make_float3(-drx/rr, -dry/rr, -drz/rr);
      float3 normalvecp2 = normalvec[p2];
      float ul = (velrhop1.x * eij.x + velrhop1.y * eij.y + velrhop1.z * eij.z);
      float ur = (velrhop2.x * eij.x + velrhop2.y * eij.y + velrhop2.z * eij.z);//Zhang JCP2017
      float pl = pressp1;
      float pr = pressp2;
      if(boundp2){
          ul = -(normalvecp2.x * velrhop1.x + normalvecp2.y * velrhop1.y + normalvecp2.z * velrhop1.z);
          ur = -ul - 2.0f * (normalvecp2.x * velrhop2.x + normalvecp2.y * velrhop2.y + normalvecp2.z * velrhop2.z);
          pl = pressp1;
          pr = (pressp1 + velrhop1.w * (CTE.gravity.x * -drx + CTE.gravity.y * -dry + CTE.gravity.z * -drz));
          pr = pr *(pr>0.0f);
          velrhop2.w = cufsph::ComputeRhoCte(pr);
      }

      float beta0 = CTE.beta;
      if (compute) {
          //  //-Velocity derivative (Momentum equation).
          const float phi0 = beta0 * CTE.kernelh / rr * fminf(fmaxf(ul - ur, 0.0f), CTE.cs0);
          const float limiter = 0.5f * phi0 * (velrhop1.w + velrhop2.w) / 2.0f * (ul - ur);
          bool tic = (pl <= 0.0f && pardetp1 == 4);
          const float Pstar = tic ? 0.5f * (pr - pl) + limiter : 0.5f * (pr + pl) + limiter;
          //const float Pstar = 0.5f * (pr + pl) + limiter;
          const float p_vpm = -2.0f * massp2 * Pstar / (velrhop1.w * velrhop2.w);
          acep1.x += p_vpm * frx; acep1.y += p_vpm * fry; acep1.z += p_vpm * frz;
      }

      //-HPDC
      if (hpdc) {
          const float psi_vpm = -(psi[p2] - psip1) * massp2 / velrhop2.w;
          acep1.x += psi_vpm * frx; acep1.y += psi_vpm * fry; acep1.z += psi_vpm * frz;
          const float dvx = velrhop1.x - velrhop2.x, dvy = velrhop1.y - velrhop2.y, dvz = velrhop1.z - velrhop2.z;
          //apsip1 += (velrhop1.x * velrhop1.x + velrhop1.y * velrhop1.y + velrhop1.z * velrhop1.z)* massp2 * (dvx * frx + dvy * fry + dvz * frz) / velrhop2.w;
          apsip1 += CTE.cs0 * CTE.cs0 * massp2 * (dvx * frx + dvy * fry + dvz * frz) / velrhop2.w;
          //printf("apsip1 = %.3f, p1 = %d\n", apsip1,p1);
      }

      //-Density derivative (Continuity equation).
      const float dvx=velrhop1.x-velrhop2.x, dvy=velrhop1.y-velrhop2.y, dvz=velrhop1.z-velrhop2.z;
      if(compute)arp1+=(USE_FLOATING? ftmassp2: massp2)*(dvx*frx+dvy*fry+dvz*frz)*(velrhop1.w/velrhop2.w);

      const float cbar=CTE.cs0;
      const float dot3=(tdensity!=DDT_None || shift? drx*frx+dry*fry+drz*frz: 0);
      //-Density Diffusion Term (Molteni and Colagrossi 2009).
      if(tdensity==DDT_DDT && deltap1!=FLT_MAX){
        const float rhop1over2=velrhop1.w/velrhop2.w;
        const float visc_densi=CTE.ddtkh*cbar*(rhop1over2-1.f)/(rr2+CTE.eta2);
        const float delta=visc_densi*dot3*(USE_FLOATING? ftmassp2: massp2);
        //deltap1=(boundp2? FLT_MAX: deltap1+delta);
        //deltap1=(boundp2 && CTE.tboundary==BC_DBC? FLT_MAX: deltap1+delta);
        deltap1 = deltap1 + delta;
      }
      //-Density Diffusion Term (Fourtakas et al 2019).
      if((tdensity==DDT_DDT2 || (tdensity==DDT_DDT2Full && !boundp2)) && deltap1!=FLT_MAX && !ftp2){
        const float rh=1.f+CTE.ddtgz*drz;
        const float drhop=CTE.rhopzero*pow(rh,1.f/CTE.gamma)-CTE.rhopzero;  
        const float visc_densi=CTE.ddtkh*cbar*((velrhop2.w-velrhop1.w)-drhop)/(rr2+CTE.eta2);
        const float delta=visc_densi*dot3*massp2/velrhop2.w;
        //deltap1=(boundp2? FLT_MAX: deltap1-delta); //-blocks it makes it boil - bloody DBC
        deltap1 = deltap1 - delta;
      }

      //-Shifting correction.
      //if(shift && shiftposfsp1.x!=FLT_MAX){
      //  const float massrhop=(USE_FLOATING? ftmassp2: massp2)/velrhop2.w;
      //  const bool noshift=(boundp2 && (shiftmode==SHIFT_NoBound || (shiftmode==SHIFT_NoFixed && CODE_IsFixed(code[p2]))));
      //  shiftposfsp1.x=(noshift? FLT_MAX: shiftposfsp1.x+massrhop*frx); //-Removes shifting for the boundaries. | Con boundary anula shifting.
      //  shiftposfsp1.y+=massrhop*fry;
      //  shiftposfsp1.z+=massrhop*frz;
      //  shiftposfsp1.w-=massrhop*dot3;
      //}

      //===== Viscosity ===== 
      if(compute){
        const float dot=drx*dvx + dry*dvy + drz*dvz;
        const float dot_rr2=dot/(rr2+CTE.eta2);
        visc=max(dot_rr2,visc);  //ViscDt=max(dot/(rr2+Eta2),ViscDt);
        if(!lamsps){//-Artificial viscosity.
          if(dot<0){
            const float amubar=CTE.kernelh*dot_rr2;  //amubar=CTE.kernelh*dot/(rr2+CTE.eta2);
            const float robar=(velrhop1.w+velrhop2.w)*0.5f;
            const float pi_visc=(-visco*cbar*amubar/robar)*(USE_FLOATING? ftmassp2: massp2);
            acep1.x-=pi_visc*frx; acep1.y-=pi_visc*fry; acep1.z-=pi_visc*frz;
          }
        }
        else{//-Laminar+SPS viscosity.
          {//-Laminar contribution.
            const float robar2=(velrhop1.w+velrhop2.w);
            const float temp=4.f*visco/((rr2+CTE.eta2)*robar2);  //-Simplication of temp=2.0f*visco/((rr2+CTE.eta2)*robar); robar=(rhopp1+velrhop2.w)*0.5f;
            const float vtemp=(USE_FLOATING? ftmassp2: massp2)*temp*(drx*frx+dry*fry+drz*frz);  
            acep1.x+=vtemp*dvx; acep1.y+=vtemp*dvy; acep1.z+=vtemp*dvz;
          }
          //-SPS turbulence model.
          float2 taup2_xx_xy=taup1_xx_xy; //-taup1 is always zero when p1 is not fluid. | taup1 siempre es cero cuando p1 no es fluid.
          float2 taup2_xz_yy=taup1_xz_yy;
          float2 taup2_yz_zz=taup1_yz_zz;
          if(!boundp2 && (USE_NOFLOATING || !ftp2)){//-When p2 is fluid.
            float2 taup2=tauff[p2*3];     taup2_xx_xy.x+=taup2.x; taup2_xx_xy.y+=taup2.y;
                   taup2=tauff[p2*3+1];   taup2_xz_yy.x+=taup2.x; taup2_xz_yy.y+=taup2.y;
                   taup2=tauff[p2*3+2];   taup2_yz_zz.x+=taup2.x; taup2_yz_zz.y+=taup2.y;
          }
          acep1.x+=(USE_FLOATING? ftmassp2: massp2)*(taup2_xx_xy.x*frx+taup2_xx_xy.y*fry+taup2_xz_yy.x*frz);
          acep1.y+=(USE_FLOATING? ftmassp2: massp2)*(taup2_xx_xy.y*frx+taup2_xz_yy.y*fry+taup2_yz_zz.x*frz);
          acep1.z+=(USE_FLOATING? ftmassp2: massp2)*(taup2_xz_yy.x*frx+taup2_yz_zz.x*fry+taup2_yz_zz.y*frz);
          //-Velocity gradients.
          if(USE_NOFLOATING || !ftp1){//-When p1 is fluid.
            const float volp2=-(USE_FLOATING? ftmassp2: massp2)/velrhop2.w;
            float dv=dvx*volp2; grap1_xx_xy.x+=dv*frx; grap1_xx_xy.y+=dv*fry; grap1_xz_yy.x+=dv*frz;
                  dv=dvy*volp2; grap1_xx_xy.y+=dv*frx; grap1_xz_yy.y+=dv*fry; grap1_yz_zz.x+=dv*frz;
                  dv=dvz*volp2; grap1_xz_yy.x+=dv*frx; grap1_yz_zz.x+=dv*fry; grap1_yz_zz.y+=dv*frz;
            // to compute tau terms we assume that gradvel.xy=gradvel.dudy+gradvel.dvdx, gradvel.xz=gradvel.dudz+gradvel.dwdx, gradvel.yz=gradvel.dvdz+gradvel.dwdy
            // so only 6 elements are needed instead of 3x3.
          }
        }
      }
    }
  }
}

//------------------------------------------------------------------------------
/// Interaction between particles. Fluid/Float-Fluid/Float or Fluid/Float-Bound.
/// Includes artificial/laminar viscosity and normal/DEM floating bodies.
///
/// Realiza interaccion entre particulas. Fluid/Float-Fluid/Float or Fluid/Float-Bound
/// Incluye visco artificial/laminar y floatings normales/dem.
//------------------------------------------------------------------------------
template<TpKernel tker,TpFtMode ftmode,bool lamsps,bool hpdc,TpDensity tdensity,bool shift,bool symm>
  __global__ void KerInteractionForcesFluid(unsigned n,unsigned pinit,float viscob,float viscof
  ,int scelldiv,int4 nc,int3 cellzero,const int2 *begincell,unsigned cellfluid,const unsigned *dcell
  ,const float *ftomassp,const float2 *tauff,float2 *gradvelff,const float3 *dengradcorr
  ,const float4 *poscell,const float4 *velrhop,const typecode *code,const unsigned *idp
  ,float *viscdt,float *ar,float3 *ace,float *delta
  ,TpShifting shiftmode,float4 *shiftposfs
  ,const unsigned *pardet, const float3 *normalvec,const float *psi, float *apsi)
{
  const unsigned p=blockIdx.x*blockDim.x + threadIdx.x; //-Number of particle.
  if(p<n){
    const unsigned p1=p+pinit;      //-Number of particle.
    float visc=0,arp1=0,deltap1=0;
    float3 acep1=make_float3(0,0,0);

    //-Variables for HPDC
    float psip1 = 0, apsip1 = 0;
    if(hpdc)psip1 = psi[p1];

    //-Variables for Shifting.
    float4 shiftposfsp1;
    if(shift)shiftposfsp1=shiftposfs[p1];

    //-Particle type
    const unsigned pardetp1 = pardet[p1];

    //-Obtains data of particle p1 in case there are floating bodies.
    bool ftp1;       //-Indicates if it is floating. | Indica si es floating.
    if(USE_FLOATING){
      const typecode cod=code[p1];
      ftp1=CODE_IsFloating(cod);
      if(ftp1 && tdensity!=DDT_None)deltap1=FLT_MAX; //-DDT is not applied to floating particles.
      if(ftp1 && shift)shiftposfsp1.x=FLT_MAX; //-Shifting is not calculated for floating bodies. | Para floatings no se calcula shifting.
    }

    //-Obtains basic data of particle p1.
    const float4 pscellp1=poscell[p1];
    const float4 velrhop1=velrhop[p1];
    const float pressp1=cufsph::ComputePressCte(velrhop1.w);
    const bool rsymp1=(symm && PSCEL_GetPartY(__float_as_uint(pscellp1.w))==0); //<vs_syymmetry>

    //-Variables for Laminar+SPS.
    float2 taup1_xx_xy,taup1_xz_yy,taup1_yz_zz;
    if(lamsps){
      taup1_xx_xy=tauff[p1*3];
      taup1_xz_yy=tauff[p1*3+1];
      taup1_yz_zz=tauff[p1*3+2];
    }
    //-Variables for Laminar+SPS (computation).
    float2 grap1_xx_xy,grap1_xz_yy,grap1_yz_zz;
    if(lamsps){
      grap1_xx_xy=make_float2(0,0);
      grap1_xz_yy=make_float2(0,0);
      grap1_yz_zz=make_float2(0,0);
    }

    //-Obtains neighborhood search limits.
    int ini1,fin1,ini2,fin2,ini3,fin3;
    cunsearch::InitCte(dcell[p1],scelldiv,nc,cellzero,ini1,fin1,ini2,fin2,ini3,fin3);

    //-Interaction with fluids.
    ini3+=cellfluid; fin3+=cellfluid;
    for(int c3=ini3;c3<fin3;c3+=nc.w)for(int c2=ini2;c2<fin2;c2+=nc.x){
      unsigned pini,pfin=0;  cunsearch::ParticleRange(c2,c3,ini1,fin1,begincell,pini,pfin);
      if(pfin){
                          KerInteractionForcesFluidBox<tker,ftmode,lamsps,tdensity,shift,false> (false,p1,pini,pfin,viscof,ftomassp,tauff,dengradcorr,poscell,velrhop,code,idp,normalvec,CTE.massf,ftp1,pscellp1,velrhop1,pressp1,taup1_xx_xy,taup1_xz_yy,taup1_yz_zz,grap1_xx_xy,grap1_xz_yy,grap1_yz_zz,acep1,arp1,visc,deltap1,shiftmode,shiftposfsp1,pardetp1,hpdc, psip1, psi, apsip1);
        if(symm && rsymp1)KerInteractionForcesFluidBox<tker,ftmode,lamsps,tdensity,shift,true > (false,p1,pini,pfin,viscof,ftomassp,tauff,dengradcorr,poscell,velrhop,code,idp,normalvec,CTE.massf,ftp1,pscellp1,velrhop1,pressp1,taup1_xx_xy,taup1_xz_yy,taup1_yz_zz,grap1_xx_xy,grap1_xz_yy,grap1_yz_zz,acep1,arp1,visc,deltap1,shiftmode,shiftposfsp1,pardetp1,hpdc, psip1, psi, apsip1); //<vs_syymmetry>
      }
    }
    //-Interaction with boundaries.
    ini3-=cellfluid; fin3-=cellfluid;
    for(int c3=ini3;c3<fin3;c3+=nc.w)for(int c2=ini2;c2<fin2;c2+=nc.x){
      unsigned pini,pfin=0;  cunsearch::ParticleRange(c2,c3,ini1,fin1,begincell,pini,pfin);
      if(pfin){
                        KerInteractionForcesFluidBox<tker,ftmode,lamsps,tdensity,shift,false> (true ,p1,pini,pfin,viscob,ftomassp,tauff,NULL,poscell,velrhop,code,idp,normalvec,CTE.massb,ftp1,pscellp1,velrhop1,pressp1,taup1_xx_xy,taup1_xz_yy,taup1_yz_zz,grap1_xx_xy,grap1_xz_yy,grap1_yz_zz,acep1,arp1,visc,deltap1,shiftmode,shiftposfsp1,pardetp1,hpdc, psip1, psi, apsip1);
      if(symm && rsymp1)KerInteractionForcesFluidBox<tker,ftmode,lamsps,tdensity,shift,true > (true ,p1,pini,pfin,viscob,ftomassp,tauff,NULL,poscell,velrhop,code,idp,normalvec,CTE.massb,ftp1,pscellp1,velrhop1,pressp1,taup1_xx_xy,taup1_xz_yy,taup1_yz_zz,grap1_xx_xy,grap1_xz_yy,grap1_yz_zz,acep1,arp1,visc,deltap1,shiftmode,shiftposfsp1,pardetp1,hpdc, psip1, psi, apsip1);
      }
    }

    //-Compute dpsi/dt =======================================
    if (hpdc) {
        //const float _tau = sqrtf(velrhop1.x*velrhop1.x+velrhop1.y*velrhop1.y+velrhop1.z*velrhop1.z) * PI / (2.0f * CTE.kernelh);
        const float _tau = CTE.cs0 * PI / (2.0f * CTE.kernelh);
        apsip1 += -_tau * psip1;
    }

    //-Stores results.
    if(shift||arp1||acep1.x||acep1.y||acep1.z||visc){
      if(tdensity!=DDT_None){
        if(delta){
          const float rdelta=delta[p1];
          delta[p1]=(rdelta==FLT_MAX || deltap1==FLT_MAX? FLT_MAX: rdelta+deltap1);
        }
        else if(deltap1!=FLT_MAX)arp1+=deltap1;
      }
      ar[p1]+=arp1;
      if (hpdc)apsi[p1] += apsip1;
      float3 r=ace[p1]; r.x+=acep1.x; r.y+=acep1.y; r.z+=acep1.z; ace[p1]=r;
      if(visc>viscdt[p1])viscdt[p1]=visc;
      if(lamsps){
        float2 rg;
        rg=gradvelff[p1*3  ];  rg=make_float2(rg.x+grap1_xx_xy.x,rg.y+grap1_xx_xy.y);  gradvelff[p1*3  ]=rg;
        rg=gradvelff[p1*3+1];  rg=make_float2(rg.x+grap1_xz_yy.x,rg.y+grap1_xz_yy.y);  gradvelff[p1*3+1]=rg;
        rg=gradvelff[p1*3+2];  rg=make_float2(rg.x+grap1_yz_zz.x,rg.y+grap1_yz_zz.y);  gradvelff[p1*3+2]=rg;
      }
      //if(shift)shiftposfs[p1]=shiftposfsp1;
    }
  }
}

#ifndef DISABLE_BSMODES
//==============================================================================
/// Collects kernel information.
//==============================================================================
template<TpKernel tker,TpFtMode ftmode,bool lamsps,bool hpdc,TpDensity tdensity,bool shift,bool symm> 
  void Interaction_ForcesT_KerInfo(StKerInfo *kerinfo)
{
 #if CUDART_VERSION >= 6050
  {
    typedef void (*fun_ptr)(unsigned,unsigned,float,float,int,int4,int3,const int2*,unsigned,const unsigned*,const float*,const float2*,float2*,const float3*,const float4*,const float4*,const typecode*,const unsigned*,float*,float*,float3*,float*,TpShifting,float4*,const unsigned *, const float3 *,const float *, float *);
    fun_ptr ptr=&KerInteractionForcesFluid<tker,ftmode,lamsps,hpdc,tdensity,shift,symm>;
    int qblocksize=0,mingridsize=0;
    cudaOccupancyMaxPotentialBlockSize(&mingridsize,&qblocksize,(void*)ptr,0,0);
    struct cudaFuncAttributes attr;
    cudaFuncGetAttributes(&attr,(void*)ptr);
    kerinfo->forcesfluid_bs=qblocksize;
    kerinfo->forcesfluid_rg=attr.numRegs;
    kerinfo->forcesfluid_bsmax=attr.maxThreadsPerBlock;
    //printf(">> KerInteractionForcesFluid  blocksize:%u (%u)\n",qblocksize,0);
  }
  {
    typedef void (*fun_ptr)(unsigned,unsigned,int,int4,int3,const int2*,const unsigned*,const float*,const float4*,const float4*,const typecode*,const unsigned*,float*,float*);
    fun_ptr ptr=&KerInteractionForcesBound<tker,ftmode,symm>;
    int qblocksize=0,mingridsize=0;
    cudaOccupancyMaxPotentialBlockSize(&mingridsize,&qblocksize,(void*)ptr,0,0);
    struct cudaFuncAttributes attr;
    cudaFuncGetAttributes(&attr,(void*)ptr);
    kerinfo->forcesbound_bs=qblocksize;
    kerinfo->forcesbound_rg=attr.numRegs;
    kerinfo->forcesbound_bsmax=attr.maxThreadsPerBlock;
    //printf(">> KerInteractionForcesBound  blocksize:%u (%u)\n",qblocksize,0);
  }
  fcuda::Check_CudaErroorFun("Error collecting kernel information.");
 #endif
}
#endif


//==============================================================================
/// Interaction for the force computation.
/// Interaccion para el calculo de fuerzas.
//==============================================================================
template<TpKernel tker,TpFtMode ftmode,bool lamsps,bool hpdc,TpDensity tdensity,bool shift> 
  void Interaction_ForcesGpuT(const StInterParmsg &t)
{
  //-Collects kernel information.
#ifndef DISABLE_BSMODES
  if(t.kerinfo){
    Interaction_ForcesT_KerInfo<tker,ftmode,lamsps,hpdc,tdensity,shift,false>(t.kerinfo);
    return;
  }
#endif
  const StDivDataGpu &dvd=t.divdatag;
  const int2* beginendcell=dvd.beginendcell;

  //-Interaction Boundary-Fluid.
  if (t.boundnum) {
      const int2* beginendcellfluid = dvd.beginendcell + dvd.cellfluid;
      dim3 sgridb = GetSimpleGridSize(t.boundnum, t.bsbound);
      if (t.symmetry) //<vs_syymmetry_ini>
          KerInteractionForcesBoundDummy<tker, ftmode, true > << <sgridb, t.bsbound, 0, t.stm >> >
          (t.boundnum, t.boundini, dvd.scelldiv, dvd.nc, dvd.cellzero, beginendcell + dvd.cellfluid, t.dcell
              , t.ftomassp, t.poscell, t.velrhop, t.code, t.idp, t.viscdt, t.ar, t.psi);
      else //<vs_syymmetry_end>
          KerInteractionForcesBoundDummy<tker, ftmode, false> << <sgridb, t.bsbound, 0, t.stm >> >
          (t.boundnum, t.boundini, dvd.scelldiv, dvd.nc, dvd.cellzero, beginendcellfluid, t.dcell
              , t.ftomassp, t.poscell, t.velrhop, t.code, t.idp, t.viscdt, t.ar, t.psi);
  }

  //-Interaction Fluid-Fluid & Fluid-Bound.
  if(t.fluidnum){
    //printf("[ns:%u  id:%d] halo:%d fini:%d(%d) bini:%d(%d)\n",t.nstep,t.id,t.halo,t.fluidini,t.fluidnum,t.boundini,t.boundnum);
    dim3 sgridf=GetSimpleGridSize(t.fluidnum,t.bsfluid);
    if(t.symmetry) //<vs_syymmetry_ini>
      KerInteractionForcesFluid<tker,ftmode,lamsps,hpdc,tdensity,shift,true> <<<sgridf,t.bsfluid,0,t.stm>>> 
      (t.fluidnum,t.fluidini,t.viscob,t.viscof,dvd.scelldiv,dvd.nc,dvd.cellzero,dvd.beginendcell,dvd.cellfluid,t.dcell
      ,t.ftomassp,(const float2*)t.tau,(float2*)t.gradvel,t.dengradcorr,t.poscell,t.velrhop,t.code,t.idp
      ,t.viscdt,t.ar,t.ace,t.delta,t.shiftmode,t.shiftposfs,t.pardet,t.normalvec, t.psi, t.apsi);
    else //<vs_syymmetry_end>
      KerInteractionForcesFluid<tker,ftmode,lamsps,hpdc,tdensity,shift,false> <<<sgridf,t.bsfluid,0,t.stm>>> 
      (t.fluidnum,t.fluidini,t.viscob,t.viscof,dvd.scelldiv,dvd.nc,dvd.cellzero,dvd.beginendcell,dvd.cellfluid,t.dcell
      ,t.ftomassp,(const float2*)t.tau,(float2*)t.gradvel,t.dengradcorr,t.poscell,t.velrhop,t.code,t.idp
      ,t.viscdt,t.ar,t.ace,t.delta,t.shiftmode,t.shiftposfs,t.pardet,t.normalvec, t.psi, t.apsi);
  }
}

//==============================================================================
//#define FAST_COMPILATION
template<TpKernel tker,TpFtMode ftmode,bool lamsps, bool hpdc> void Interaction_Forces_gt3(const StInterParmsg &t){
#ifdef FAST_COMPILATION
  if(t.shiftmode || t.tdensity!=DDT_DDT4)throw "Shifting and extra DDT are disabled for FastCompilation...";
  Interaction_ForcesGpuT<tker,ftmode,lamsps,DDT_DDT4,false> (t);
#else
  if(t.shiftmode){               const bool shift=true;
    if(t.tdensity==DDT_None)    Interaction_ForcesGpuT<tker,ftmode,lamsps,hpdc,DDT_None    ,shift> (t);
    if(t.tdensity==DDT_DDT)     Interaction_ForcesGpuT<tker,ftmode,lamsps,hpdc,DDT_DDT     ,shift> (t);
    if(t.tdensity==DDT_DDT2)    Interaction_ForcesGpuT<tker,ftmode,lamsps,hpdc,DDT_DDT2    ,shift> (t);
    if(t.tdensity==DDT_DDT2Full)Interaction_ForcesGpuT<tker,ftmode,lamsps,hpdc,DDT_DDT2Full,shift> (t);
  }
  else{                           const bool shift=false;
    if(t.tdensity==DDT_None)    Interaction_ForcesGpuT<tker,ftmode,lamsps,hpdc,DDT_None    ,shift> (t);
    if(t.tdensity==DDT_DDT)     Interaction_ForcesGpuT<tker,ftmode,lamsps,hpdc,DDT_DDT     ,shift> (t);
    if(t.tdensity==DDT_DDT2)    Interaction_ForcesGpuT<tker,ftmode,lamsps,hpdc,DDT_DDT2    ,shift> (t);
    if(t.tdensity==DDT_DDT2Full)Interaction_ForcesGpuT<tker,ftmode,lamsps,hpdc,DDT_DDT2Full,shift> (t);
  }
#endif
}


//#define FAST_COMPILATION
template<TpKernel tker, TpFtMode ftmode, bool lamsps> void Interaction_Forces_gt2(const StInterParmsg& t) {
    if (t.tdiv == DIV_VEM_HPDC)    Interaction_Forces_gt3<tker, ftmode, lamsps, true>(t);
    else                           Interaction_Forces_gt3<tker, ftmode, lamsps, false>(t);
}

//==============================================================================
template<TpKernel tker,TpFtMode ftmode> void Interaction_Forces_gt1(const StInterParmsg &t){
#ifdef FAST_COMPILATION
  if(t.lamsps)throw "Extra viscosity options are disabled for FastCompilation...";
  Interaction_Forces_gt2<tker,ftmode,false> (t);
#else
  if(t.lamsps)Interaction_Forces_gt2<tker,ftmode,true>  (t);
  else        Interaction_Forces_gt2<tker,ftmode,false> (t);
#endif
}
//==============================================================================
template<TpKernel tker> void Interaction_Forces_gt0(const StInterParmsg &t){
#ifdef FAST_COMPILATION
  if(t.ftmode!=FTMODE_None)throw "Extra FtMode options are disabled for FastCompilation...";
  Interaction_Forces_gt1<tker,FTMODE_None> (t);
#else
  if(t.ftmode==FTMODE_None)    Interaction_Forces_gt1<tker,FTMODE_None> (t);
  else if(t.ftmode==FTMODE_Sph)Interaction_Forces_gt1<tker,FTMODE_Sph>  (t);
  else if(t.ftmode==FTMODE_Ext)Interaction_Forces_gt1<tker,FTMODE_Ext>  (t);
#endif
}
//==============================================================================
void Interaction_Forces(const StInterParmsg &t){
#ifdef FAST_COMPILATION
  if(t.tkernel!=KERNEL_Wendland)throw "Extra kernels are disabled for FastCompilation...";
  Interaction_Forces_gt0<KERNEL_Wendland> (t);
#else
  if(t.tkernel==KERNEL_Wendland)     Interaction_Forces_gt0<KERNEL_Wendland> (t);
 #ifndef DISABLE_KERNELS_EXTRA
  else if(t.tkernel==KERNEL_Cubic)   Interaction_Forces_gt0<KERNEL_Cubic   > (t);
 #endif
#endif
}

//------------------------------------------------------------------------------
/// Interaction of a particle with a set of particles. (Fluid/Float-Fluid/Float/Bound)
/// Realiza la interaccion de una particula con un conjunto de ellas. (Fluid/Float-Fluid/Float/Bound)
//------------------------------------------------------------------------------
template<TpKernel tker>
__device__ void KerGetAuxarrayBox(unsigned p1, const unsigned& pini, const unsigned& pfin
    , const float4* poscell, const float4* velrhop
    , float massp2, const float4& pscellp1, const float4& velrhop1, tmatrix3f& kera_corr, float &cp1, float& posdivp1, unsigned& np2ofp1, float & veldivp1)
{
    for (int p2 = pini; p2 < pfin; p2++) {
        const float4 pscellp2 = poscell[p2];
        float drx = pscellp1.x - pscellp2.x + CTE.poscellsize * (PSCEL_GetfX(pscellp1.w) - PSCEL_GetfX(pscellp2.w));
        float dry = pscellp1.y - pscellp2.y + CTE.poscellsize * (PSCEL_GetfY(pscellp1.w) - PSCEL_GetfY(pscellp2.w));
        float drz = pscellp1.z - pscellp2.z + CTE.poscellsize * (PSCEL_GetfZ(pscellp1.w) - PSCEL_GetfZ(pscellp2.w));
        //if (symm)dry = pscellp1.y + pscellp2.y + CTE.poscellsize * PSCEL_GetfY(pscellp2.w); //<vs_syymmetry>
        const float rr2 = drx * drx + dry * dry + drz * drz;
        if (rr2 <= CTE.kernelsize2 && rr2 >= ALMOSTZERO) {
            //-Computes kernel.
            const float wab = cufsph::GetKernel_Wab<tker>(rr2);
            const float fac = cufsph::GetKernel_Fac<tker>(rr2);
            const float frx = fac * drx, fry = fac * dry, frz = fac * drz; //-Gradients.

            float4 velrhop2 = velrhop[p2];
            //if (symm)velrhop2.y = -velrhop2.y; //<vs_syymmetry>
            const float vb = massp2 / velrhop2.w;
            //-corrective matrix
            kera_corr.a11 += -drx * frx * vb; kera_corr.a12 += -drx * fry * vb; kera_corr.a13 += -drx * frz * vb;
            kera_corr.a21 += -dry * frx * vb; kera_corr.a22 += -dry * fry * vb; kera_corr.a23 += -dry * frz * vb;
            kera_corr.a31 += -drz * frx * vb; kera_corr.a32 += -drz * fry * vb; kera_corr.a33 += -drz * frz * vb;
            //-ci
            cp1 += wab * vb;
            //-Divergence of position vec
            posdivp1 += -(drx * frx + dry * fry + drz * frz) * vb;
            np2ofp1 += 1;
            //-Divergence of velocity
            const float dvx = velrhop1.x - velrhop2.x, dvy = velrhop1.y - velrhop2.y, dvz = velrhop1.z - velrhop2.z;
            veldivp1 += -vb * (dvx * frx + dvy * fry + dvz * frz);
        }
    }
}

//------------------------------------------------------------------------------
template<TpKernel tker>
__global__ void KerGetAuxarray(bool simulate2d,unsigned n, unsigned pinit
    , int scelldiv, int4 nc, int3 cellzero, const int2* begincell, unsigned cellfluid, const unsigned* dcell
    , const float4* poscell, const float4* velrhop, tmatrix3f* corrmat,unsigned *pardet, float* veldiv, float *ci) {

    const unsigned p = blockIdx.x * blockDim.x + threadIdx.x; //-Number of particle.
    if (p < n) {
        const unsigned p1 = p + pinit;      //-Number of particle.

        //-Obtains basic data of particle p1.
        const float4 pscellp1 = poscell[p1];
        const float4 velrhop1 = velrhop[p1];

        //-Corrective matrix
        tmatrix3f a_corr;cumath::Tmatrix3fReset(a_corr);
        //-Ci
        float cp1 = cufsph::GetKernel_Wab<tker>(0.0f) * CTE.massf / velrhop1.w;//-add p1
        //-Div of position vector
        float posdivp1 = 0.0f;//-divergence of position vector
        unsigned np2ofp1 = 0.0f;//-number of neighbor particles of p1 
        float lowerlimit = simulate2d ? 0.4f : 0.6f, upperlimit = simulate2d ? 1.75f : 2.5f;//divergence of position vector lower and upper limits
        float nlimit = 0.4f;//ratio : (p2 of p1)/n0
        //-Div u
        float veldivp1 = 0.0f;
        //-Obtains neighborhood search limits.
        int ini1, fin1, ini2, fin2, ini3, fin3;
        cunsearch::InitCte(dcell[p1], scelldiv, nc, cellzero, ini1, fin1, ini2, fin2, ini3, fin3);
        //-Interaction with fluids.
        ini3 += cellfluid; fin3 += cellfluid;
        for (int c3 = ini3; c3 < fin3; c3 += nc.w)for (int c2 = ini2; c2 < fin2; c2 += nc.x) {
            unsigned pini, pfin = 0;  cunsearch::ParticleRange(c2, c3, ini1, fin1, begincell, pini, pfin);
            if (pfin) {
                KerGetAuxarrayBox<tker>(p1, pini, pfin, poscell, velrhop, CTE.massf, pscellp1, velrhop1, a_corr, cp1, posdivp1, np2ofp1, veldivp1);
            }
        }
        //-Interaction with boundaries.
        ini3 -= cellfluid; fin3 -= cellfluid;
        for (int c3 = ini3; c3 < fin3; c3 += nc.w)for (int c2 = ini2; c2 < fin2; c2 += nc.x) {
            unsigned pini, pfin = 0;  cunsearch::ParticleRange(c2, c3, ini1, fin1, begincell, pini, pfin);
            if (pfin) {
                KerGetAuxarrayBox<tker>(p1, pini, pfin, poscell, velrhop, CTE.massb, pscellp1, velrhop1, a_corr, cp1, posdivp1, np2ofp1, veldivp1);
            }
        }

        //-Get Corrective Matrix
        const double determ = simulate2d ? cumath::Determinant2x2(a_corr) :cumath::Determinant3x3(a_corr);
        if (determ != 0) {
            tmatrix3f corrmatp1 = (simulate2d ? cumath::InverseMatrix2x2(a_corr, determ) : cumath::InverseMatrix3x3(a_corr, determ));
            corrmat[p1] = corrmatp1;
        }
        else {
            cumath::Tmatrix3fResetI(corrmat[p1]);
        }
        //-Get Ci
        ci[p1] = cp1;

        //-Get particle detection step I
        if (posdivp1 < lowerlimit) pardet[p1] = 1;//-splash particles
        else if (posdivp1 >= lowerlimit && posdivp1 < upperlimit)pardet[p1] = 2;//-free surface and vicinitity particles
        else pardet[p1] = 4;//inner paticles
        //pardet[p1] = 4;
        //if (posdivp1 < lowerlimit || np2ofp1 < nlimit* CTE.nzero) pardet[p1] = 1;//-splash particles
        //else if (posdivp1 >= lowerlimit && posdivp1 < upperlimit && np2ofp1 >= nlimit*CTE.nzero)pardet[p1] = 2;//-free surface and vicinitity particles
        
        //-Get Velocity Divergence
        veldiv[p1] = veldivp1;
    }
}


//------------------------------------------------------------------------------
template<TpKernel tker>
__global__ void KerGetAuxarrayBound(bool simulate2d, unsigned n, unsigned pinit
    , int scelldiv, int4 nc, int3 cellzero, const int2* begincell, unsigned cellfluid, const unsigned* dcell
    , const float4* poscell, const float4* velrhop, tmatrix3f* corrmat, unsigned* pardet, float* ci) {

    const unsigned p = blockIdx.x * blockDim.x + threadIdx.x; //-Number of particle.
    if (p < n) {
        const unsigned p1 = p+pinit;
        //-Obtains basic data of particle p1.
        const float4 pscellp1 = poscell[p1];
        const float4 velrhop1 = velrhop[p1];

        //-corrective matrix
        tmatrix3f a_corr; cumath::Tmatrix3fReset(a_corr);
        //-Ci
        float cp1 = cufsph::GetKernel_Wab<tker>(0) * CTE.massb / velrhop1.w;//-add p1
        //-Div of position vector
        float posdivp1 = 0;//-divergence of position vector
        unsigned np2ofp1 = 0;//-number of neighbor particles of p1 
        float veldivp1 = 0;
        //-Obtains neighborhood search limits.
        int ini1, fin1, ini2, fin2, ini3, fin3;
        cunsearch::InitCte(dcell[p1], scelldiv, nc, cellzero, ini1, fin1, ini2, fin2, ini3, fin3);

        for (int c3 = ini3; c3 < fin3; c3 += nc.w)for (int c2 = ini2; c2 < fin2; c2 += nc.x) {
            unsigned pini, pfin = 0;  cunsearch::ParticleRange(c2, c3, ini1, fin1, begincell, pini, pfin);
            if (pfin) {
                KerGetAuxarrayBox<tker>(p1, pini, pfin, poscell, velrhop, CTE.massb, pscellp1, velrhop1, a_corr, cp1, posdivp1, np2ofp1,veldivp1);
            }
        }

        //-Get Corr Matrix
        const double determ = simulate2d ? cumath::Determinant2x2(a_corr) : cumath::Determinant3x3(a_corr);
        if (determ != 0) {
            tmatrix3f corrmatp1 = (simulate2d ? cumath::InverseMatrix2x2(a_corr, determ) : cumath::InverseMatrix3x3(a_corr, determ));
            corrmat[p1] = corrmatp1;
        }
        else {
            //printf("error in corrmat");
            cumath::Tmatrix3fResetI(corrmat[p1]);
        }
        //-Get Ci
        ci[p1] = cp1;
    }
}


//-----------------------------------------------------
//-----------------KerParachuteScan--------------------
//-----------------------------------------------------
template<TpKernel tker>
__device__ void KerParachuteScanBox(unsigned p1, const unsigned& pini, const unsigned& pfin
    , const float4* poscell, const float4* velrhop, const unsigned* pardet, float massp2, const float4& pscellp1, const float4& velrhop1
    , const float3& normalvecp1, bool &isfsp1) {

    for (int p2 = pini; p2 < pfin; p2++) {
        const float4 pscellp2 = poscell[p2];
        float drx = pscellp1.x - pscellp2.x + CTE.poscellsize * (PSCEL_GetfX(pscellp1.w) - PSCEL_GetfX(pscellp2.w));
        float dry = pscellp1.y - pscellp2.y + CTE.poscellsize * (PSCEL_GetfY(pscellp1.w) - PSCEL_GetfY(pscellp2.w));
        float drz = pscellp1.z - pscellp2.z + CTE.poscellsize * (PSCEL_GetfZ(pscellp1.w) - PSCEL_GetfZ(pscellp2.w));
        //if (symm)dry = pscellp1.y + pscellp2.y + CTE.poscellsize * PSCEL_GetfY(pscellp2.w); //<vs_syymmetry>
        const float rr2 = drx * drx + dry * dry + drz * drz;
        if (rr2 <= CTE.kernelsize2 && rr2 >= ALMOSTZERO) {
            
            bool bool1 = false, bool2 = false;
            const float kernelh = CTE.kernelh;
            const float3 vec_rab = make_float3(-drx,-dry,-drz); 
            const float  cos_rab = (vec_rab.x * normalvecp1.x + vec_rab.y * normalvecp1.y + vec_rab.z * normalvecp1.z)/sqrt(rr2);
            const float3 vec_rtb = make_float3(-drx- kernelh* normalvecp1.x, -dry - kernelh * normalvecp1.y, -drz - kernelh * normalvecp1.z);
            
            const float  len_rtb2 = vec_rtb.x* vec_rtb.x + vec_rtb.y* vec_rtb.y + vec_rtb.z* vec_rtb.z;

            if(rr2 < 2.0f* kernelh * kernelh && cos_rab>0.75f) bool1 = true;
            if(rr2 >= 2.0f * kernelh * kernelh && len_rtb2< kernelh * kernelh) bool2=true;

            if(bool1 || bool2) {isfsp1=false;break;}

        }
    }

}

template<TpKernel tker>
__global__ void KerParachuteScan(bool simulate2d, unsigned n, unsigned pinit
    , int scelldiv, int4 nc, int3 cellzero, const int2* begincell, unsigned cellfluid, const unsigned* dcell
    , const float4* poscell, const float4* velrhop, float3* normalvec, unsigned* pardet) {
    const unsigned p = blockIdx.x * blockDim.x + threadIdx.x; //-Number of particle.
    if (p < n) {
        const unsigned p1 = p + pinit;      //-Number of particle
        if(pardet[p1]==2){
            //-Obtains basic data of particle p1.
            const float4 pscellp1 = poscell[p1];
            const float4 velrhop1 = velrhop[p1];
            const float3 normalvecp1 = normalvec[p1];
            bool isfsp1 = true;
            //-Obtains neighborhood search limits.
            int ini1, fin1, ini2, fin2, ini3, fin3;
            cunsearch::InitCte(dcell[p1], scelldiv, nc, cellzero, ini1, fin1, ini2, fin2, ini3, fin3);

            //-Interaction with fluids.
            ini3 += cellfluid; fin3 += cellfluid;
            for (int c3 = ini3; c3 < fin3; c3 += nc.w)for (int c2 = ini2; c2 < fin2; c2 += nc.x) {
                unsigned pini, pfin = 0;  cunsearch::ParticleRange(c2, c3, ini1, fin1, begincell, pini, pfin);
                if (pfin) {
                    KerParachuteScanBox<tker>(p1, pini, pfin, poscell, velrhop, pardet, CTE.massf, pscellp1, velrhop1, normalvecp1,isfsp1);
                }
            }

            if(!isfsp1)pardet[p1]=4;

        }
    }
}

//-----------------------------------------------------
//--------------KerFreeSurfaceVicinity-----------------
//-----------------------------------------------------
template<TpKernel tker>
__device__ void KerFreeSurfaceVicinityBox(unsigned p1, const unsigned& pini, const unsigned& pfin
    , const float4* poscell, const float4* velrhop, const unsigned* pardet, float massp2, const float4& pscellp1, const float4& velrhop1
    , bool& isfsvp1) {

    for (int p2 = pini; p2 < pfin; p2++) {
        if(pardet[p2]==2){
            const float4 pscellp2 = poscell[p2];
            float drx = pscellp1.x - pscellp2.x + CTE.poscellsize * (PSCEL_GetfX(pscellp1.w) - PSCEL_GetfX(pscellp2.w));
            float dry = pscellp1.y - pscellp2.y + CTE.poscellsize * (PSCEL_GetfY(pscellp1.w) - PSCEL_GetfY(pscellp2.w));
            float drz = pscellp1.z - pscellp2.z + CTE.poscellsize * (PSCEL_GetfZ(pscellp1.w) - PSCEL_GetfZ(pscellp2.w));
            //if (symm)dry = pscellp1.y + pscellp2.y + CTE.poscellsize * PSCEL_GetfY(pscellp2.w); //<vs_syymmetry>
            const float rr2 = drx * drx + dry * dry + drz * drz;
            if (rr2 <= CTE.kernelsize2 && rr2 >= ALMOSTZERO) {
                const float dismin = 2.0f*CTE.kernelh-0.5f*CTE.dp;
                if(rr2< dismin*dismin) {isfsvp1=true;break;}
            }
        }
    }
}

template<TpKernel tker>
__global__ void KerFreeSurfaceVicinity(bool simulate2d, unsigned n, unsigned pinit
    , int scelldiv, int4 nc, int3 cellzero, const int2* begincell, unsigned cellfluid, const unsigned* dcell
    , const float4* poscell, const float4* velrhop, unsigned* pardet) {
    const unsigned p = blockIdx.x * blockDim.x + threadIdx.x; //-Number of particle.
    if (p < n) {
        const unsigned p1 = p + pinit;      //-Number of particle
        if (pardet[p1] == 4) {
            //-Obtains basic data of particle p1.
            const float4 pscellp1 = poscell[p1];
            const float4 velrhop1 = velrhop[p1];
            bool isfsvp1 = false;
            //-Obtains neighborhood search limits.
            int ini1, fin1, ini2, fin2, ini3, fin3;
            cunsearch::InitCte(dcell[p1], scelldiv, nc, cellzero, ini1, fin1, ini2, fin2, ini3, fin3);

            //-Interaction with fluids.
            ini3 += cellfluid; fin3 += cellfluid;
            for (int c3 = ini3; c3 < fin3; c3 += nc.w)for (int c2 = ini2; c2 < fin2; c2 += nc.x) {
                unsigned pini, pfin = 0;  cunsearch::ParticleRange(c2, c3, ini1, fin1, begincell, pini, pfin);
                if (pfin) {
                    KerFreeSurfaceVicinityBox<tker>(p1, pini, pfin, poscell, velrhop, pardet, CTE.massf, pscellp1, velrhop1, isfsvp1);
                }
            }

            if (!isfsvp1)pardet[p1] = 4;
            else pardet[p1]=3;
            //-bound vicinity?
        }
    }
}


//-----------------------------------------------------
//-------------------KerWallVicinity-------------------
//-----------------------------------------------------
template<TpKernel tker>
__device__ void KerWallVicinityBox(unsigned p1, const unsigned& pini, const unsigned& pfin
    , const float4* poscell, const float4* velrhop, const unsigned* pardet, float massp2, const float4& pscellp1, const float4& velrhop1
    , bool& iswallvp1) {

    for (int p2 = pini; p2 < pfin; p2++) {
        if (pardet[p2] == 0) {
            const float4 pscellp2 = poscell[p2];
            float drx = pscellp1.x - pscellp2.x + CTE.poscellsize * (PSCEL_GetfX(pscellp1.w) - PSCEL_GetfX(pscellp2.w));
            float dry = pscellp1.y - pscellp2.y + CTE.poscellsize * (PSCEL_GetfY(pscellp1.w) - PSCEL_GetfY(pscellp2.w));
            float drz = pscellp1.z - pscellp2.z + CTE.poscellsize * (PSCEL_GetfZ(pscellp1.w) - PSCEL_GetfZ(pscellp2.w));
            //if (symm)dry = pscellp1.y + pscellp2.y + CTE.poscellsize * PSCEL_GetfY(pscellp2.w); //<vs_syymmetry>
            const float rr2 = drx * drx + dry * dry + drz * drz;
            if (rr2 <= CTE.kernelsize2 && rr2 >= ALMOSTZERO) {
                const float dismin = 1.8f * CTE.dp;
                if (rr2 < dismin * dismin) { iswallvp1 = true; break; }
            }
        }
    }
}

template<TpKernel tker>
__global__ void KerWallVicinity(bool simulate2d, unsigned n, unsigned pinit
    , int scelldiv, int4 nc, int3 cellzero, const int2* begincell, unsigned cellfluid, const unsigned* dcell
    , const float4* poscell, const float4* velrhop, unsigned* pardet) {
    const unsigned p = blockIdx.x * blockDim.x + threadIdx.x; //-Number of particle.
    if (p < n) {
        const unsigned p1 = p + pinit;      //-Number of particle
        if (pardet[p1] == 2 || pardet[p1] == 3) {
            //-Obtains basic data of particle p1.
            const float4 pscellp1 = poscell[p1];
            const float4 velrhop1 = velrhop[p1];
            bool iswallvp1 = false;
            //-Obtains neighborhood search limits.
            int ini1, fin1, ini2, fin2, ini3, fin3;
            cunsearch::InitCte(dcell[p1], scelldiv, nc, cellzero, ini1, fin1, ini2, fin2, ini3, fin3);

            //-Interaction with fluids.
            //ini3 += cellfluid; fin3 += cellfluid;
            for (int c3 = ini3; c3 < fin3; c3 += nc.w)for (int c2 = ini2; c2 < fin2; c2 += nc.x) {
                unsigned pini, pfin = 0;  cunsearch::ParticleRange(c2, c3, ini1, fin1, begincell, pini, pfin);
                if (pfin) {
                    KerWallVicinityBox<tker>(p1, pini, pfin, poscell, velrhop, pardet, CTE.massf, pscellp1, velrhop1, iswallvp1);
                }
            }

            if (iswallvp1)pardet[p1] = 5;
        }
    }
}



//==============================================================================
///==================================VCS STEP ==================================
//==============================================================================

template<TpKernel tker>
__device__ void KerRunVcsPressStepIBox(unsigned p1, const unsigned& pini, const unsigned& pfin
    , const float4* poscell, const float4* velrhop, const float* pressvcs, const unsigned *pardet
    , float massp2, const float4& pscellp1, const float4& velrhop1, const unsigned& pardetp1,float& rhobarp1
    , float& aijp1, float& paijp1, float& dismininnerp1, unsigned& indexmininnerp1)
{
    for (int p2 = pini; p2 < pfin; p2++) {
        const float4 pscellp2 = poscell[p2];
        float drx = pscellp1.x - pscellp2.x + CTE.poscellsize * (PSCEL_GetfX(pscellp1.w) - PSCEL_GetfX(pscellp2.w));
        float dry = pscellp1.y - pscellp2.y + CTE.poscellsize * (PSCEL_GetfY(pscellp1.w) - PSCEL_GetfY(pscellp2.w));
        float drz = pscellp1.z - pscellp2.z + CTE.poscellsize * (PSCEL_GetfZ(pscellp1.w) - PSCEL_GetfZ(pscellp2.w));
        //if (symm)dry = pscellp1.y + pscellp2.y + CTE.poscellsize * PSCEL_GetfY(pscellp2.w); //<vs_syymmetry>
        const float rr2 = drx * drx + dry * dry + drz * drz;
        if (rr2 <= CTE.kernelsize2 && rr2 >= ALMOSTZERO) {
            //-Computes kernel.
            const float fac = cufsph::GetKernel_Fac<tker>(rr2);
            const float frx = fac * drx, fry = fac * dry, frz = fac * drz; //-Gradients.
            //-Computes kernel.
            const float wab = cufsph::GetKernel_Wab<tker>(rr2);
            float4 velrhop2 = velrhop[p2];
            const float rhopp1 = velrhop1.w, rhopp2 = velrhop2.w;
            const float pvcsp2 = pressvcs[p2];
            //if (symm)velrhop2.y = -velrhop2.y; //<vs_syymmetry>
            const float vb = massp2 / rhopp2;
            // Rhobar sum
            rhobarp1 += wab * massp2;
            // Aij sum
            aijp1 += 8.0f * massp2 / (rhopp1 + rhopp2) / (rhopp1 + rhopp2)
                * (-1.0f) * (drx * frx + dry * fry + drz * frz) / rr2;
            // PAij sum
            paijp1 += 8.0f * massp2 / (rhopp1 + rhopp2) / (rhopp1 + rhopp2)
                * (-1.0f) * (drx * frx + dry * fry + drz * frz) / rr2 * pvcsp2;

            //-minimun distance to free surface (only for free-surface vicinity particles)
            if(pardetp1==3 && pardet[p2]==4){
                float dis = sqrt(rr2);
                dismininnerp1 = (dismininnerp1 > dis ? dis : dismininnerp1);
                indexmininnerp1 = (dismininnerp1 == dis? p2:indexmininnerp1);
            }
        }
    }
}

template<TpKernel tker>
__global__ void KerRunVcsPressStepI(unsigned n, unsigned pinit
    , int scelldiv, int4 nc, int3 cellzero, const int2* begincell, unsigned cellfluid, const unsigned* dcell
    , const float4* poscell, const float4* velrhop, const unsigned *pardet, const float* pressvcs
    , float* aij, float* paij, float* rhobari, float* pressvcsnewi,float* dismininner,unsigned *indexmininner,const double dt){
    const unsigned p = blockIdx.x * blockDim.x + threadIdx.x; //-Number of particle.
    if (p < n) {
        const unsigned p1 = p + pinit;      //-Number of particle.

        //-Obtains basic data of particle p1.
        const float4 pscellp1 = poscell[p1];
        const float4 velrhop1 = velrhop[p1];
        float rhobarp1 = cufsph::GetKernel_Wab<tker>(0) * CTE.massf;//-add p1
        float aijp1 = 0, paijp1 = 0, dismininnerp1 = FLT_MAX; unsigned indexmininnerp1 = 0;
        const unsigned pardetp1 = pardet[p1];
        //-Obtains neighborhood search limits.
        int ini1, fin1, ini2, fin2, ini3, fin3;
        cunsearch::InitCte(dcell[p1], scelldiv, nc, cellzero, ini1, fin1, ini2, fin2, ini3, fin3);

        //-Interaction with fluids.
        ini3 += cellfluid; fin3 += cellfluid;
        for (int c3 = ini3; c3 < fin3; c3 += nc.w)for (int c2 = ini2; c2 < fin2; c2 += nc.x) {
            unsigned pini, pfin = 0;  cunsearch::ParticleRange(c2, c3, ini1, fin1, begincell, pini, pfin);
            if (pfin) {
                KerRunVcsPressStepIBox<tker>(p1, pini, pfin, poscell, velrhop, pressvcs, pardet,CTE.massf, pscellp1, velrhop1,pardetp1, rhobarp1, aijp1, paijp1, dismininnerp1, indexmininnerp1);
            }
        }
        //-Interaction with boundaries.
        ini3 -= cellfluid; fin3 -= cellfluid;
        for (int c3 = ini3; c3 < fin3; c3 += nc.w)for (int c2 = ini2; c2 < fin2; c2 += nc.x) {
            unsigned pini, pfin = 0;  cunsearch::ParticleRange(c2, c3, ini1, fin1, begincell, pini, pfin);
            if (pfin) {
                KerRunVcsPressStepIBox<tker>(p1, pini, pfin, poscell, velrhop, pressvcs, pardet, CTE.massf, pscellp1, velrhop1, pardetp1, rhobarp1, aijp1, paijp1, dismininnerp1, indexmininnerp1);
            }
        }
        aij[p1] = aijp1; paij[p1] = paijp1; rhobari[p1] = rhobarp1; dismininner[p1] = dismininnerp1; indexmininner[p1] = indexmininnerp1;
    }

    if(p<n){
        const unsigned p1 = p + pinit;      //-Number of particle.
        const float cs0 = CTE.cs0;
        const float rhobar0 = CTE.rhobarzero;
        const float rhopbysump1 = rhobari[p1];
        const float divcs = 1.0f / (rhobar0 * dt * dt * cs0 * cs0);
        const float eivcs = -(rhobar0 - rhopbysump1) / (rhobar0 * dt * dt);
        const float pressfin = (paij[p1] + eivcs) / (aij[p1] + divcs);
        pressvcsnewi[p1] = pressfin;
    }
}


template<TpKernel tker>
__global__ void KerRunVcsPress_I(unsigned n, unsigned pinit
    , int scelldiv, int4 nc, int3 cellzero, const int2* begincell, unsigned cellfluid, const unsigned* dcell
    , const float4* poscell, const float4* velrhop, const unsigned* pardet, float* pressvcs
    , float* pressvcsnewi, float* dismininner, unsigned* indexmininner) {

    const unsigned p = blockIdx.x * blockDim.x + threadIdx.x; //-Number of particle.
    if (p < n) {
        const unsigned p1 = p + pinit;
        if (pardet[p1] == 1 || pardet[p1] == 2 || pardet[p1] == 5)pressvcsnewi[p1] = 0;
        //if (pardet[p1] == 3 && dismininner[p1] != FLT_MAX) {
        if (pardet[p1] == 3) {
            pressvcsnewi[p1] = pressvcsnewi[indexmininner[p1]]
                * (2.0f * CTE.kernelh - dismininner[p1]) / (2.0f * CTE.kernelh);
        }
        //if (pardet[p1] == 3 && dismininner[p1] == FLT_MAX) {
        //    pressvcsnewi[p1] = 0;
        //}
        pressvcs[p1] = pressvcsnewi[p1];
        //printf("cip1 = {%d,%d, %7.6f}\n",
        //    p1, pardet[p1],pressvcs[p1]);
    }
}

//##############################################################################
//------------------------------------------------------------------------------
/// Interaction of a particle with a set of particles. Bound-Fluid/Float
/// Realiza la interaccion de una particula con un conjunto de ellas. Bound-Fluid/Float
//------------------------------------------------------------------------------
template<TpKernel tker>
__device__ void KerRunVcsPress_IIBox
(unsigned p1, const unsigned& pini, const unsigned& pfin, const float4* poscell, const float4* velrhop, const float* pressvcs
    , float massf, const float4& pscellp1, const float4& velrhop1, float& pressvcsp1, float& kernelsum)
{
    for (int p2 = pini; p2 < pfin; p2++) {
        const float4 pscellp2 = poscell[p2];
        float drx = pscellp1.x - pscellp2.x + CTE.poscellsize * (PSCEL_GetfX(pscellp1.w) - PSCEL_GetfX(pscellp2.w));
        float dry = pscellp1.y - pscellp2.y + CTE.poscellsize * (PSCEL_GetfY(pscellp1.w) - PSCEL_GetfY(pscellp2.w));
        float drz = pscellp1.z - pscellp2.z + CTE.poscellsize * (PSCEL_GetfZ(pscellp1.w) - PSCEL_GetfZ(pscellp2.w));
[...]
  //-Adjust cell coordinates if they exceed the maximum.
  //-Ajusta las coordendas de celda si sobrepasan el maximo.
  cx=(cx<=cellmax.x? cx: cellmax.x);
  cy=(cy<=cellmax.y? cy: cellmax.y);
  cz=(cz<=cellmax.z? cz: cellmax.z);
  //-Stores position and cell of the new particles.
  //-Graba posicion y celda de nuevas particulas.
  posxy[pnew]=rxy;
  posz[pnew]=rz;
  dcell[pnew]=DCEL_Cell(CTE.cellcode,cx,cy,cz);
}

//------------------------------------------------------------------------------
/// Creates periodic particles from a list of particles to duplicate.
/// It is assumed that all particles are valid.
/// This kernel applies to single-GPU and multi-GPU because it uses domposmin.
///
/// Crea particulas periodicas a partir de una lista con las particulas a duplicar.
/// Se presupone que todas las particulas son validas.
/// Este kernel vale para single-gpu y multi-gpu porque usa domposmin. 
//------------------------------------------------------------------------------
__global__ void KerPeriodicDuplicateVerlet(unsigned n,unsigned pini,uint3 cellmax,double3 perinc
  ,const unsigned *listp,unsigned *idp,typecode *code,unsigned *dcell
  ,double2 *posxy,double *posz,float4 *velrhop,tsymatrix3f *spstau,float4 *velrhopm1)
{
  const unsigned p=blockIdx.x*blockDim.x + threadIdx.x; //-Number of particle.
  if(p<n){
    const unsigned pnew=p+pini;
    const unsigned rp=listp[p];
    const unsigned pcopy=(rp&0x7FFFFFFF);
    //-Adjusts cell position of the new particles.
    //-Ajusta posicion y celda de nueva particula.
    KerPeriodicDuplicatePos(pnew,pcopy,(rp>=0x80000000),perinc.x,perinc.y,perinc.z,cellmax,posxy,posz,dcell);
    //-Copies the remaining data.
    //-Copia el resto de datos.
    idp[pnew]=idp[pcopy];
    code[pnew]=CODE_SetPeriodic(code[pcopy]);
    velrhop[pnew]=velrhop[pcopy];
    velrhopm1[pnew]=velrhopm1[pcopy];
    if(spstau)spstau[pnew]=spstau[pcopy];
  }
}

//==============================================================================
/// Creates periodic particles from a list of particles to duplicate.
/// Crea particulas periodicas a partir de una lista con las particulas a duplicar.
//==============================================================================
void PeriodicDuplicateVerlet(unsigned n,unsigned pini,tuint3 domcells,tdouble3 perinc
  ,const unsigned *listp,unsigned *idp,typecode *code,unsigned *dcell
  ,double2 *posxy,double *posz,float4 *velrhop,tsymatrix3f *spstau,float4 *velrhopm1)
{
  if(n){
    uint3 cellmax=make_uint3(domcells.x-1,domcells.y-1,domcells.z-1);
    dim3 sgrid=GetSimpleGridSize(n,SPHBSIZE);
    KerPeriodicDuplicateVerlet <<<sgrid,SPHBSIZE>>> (n,pini,cellmax,Double3(perinc),listp,idp,code,dcell,posxy,posz,velrhop,spstau,velrhopm1);
  }
}

//------------------------------------------------------------------------------
/// Creates periodic particles from a list of particles to duplicate.
/// It is assumed that all particles are valid.
/// This kernel applies to single-GPU and multi-GPU because it uses domposmin.
///
/// Crea particulas periodicas a partir de una lista con las particulas a duplicar.
/// Se presupone que todas las particulas son validas.
/// Este kernel vale para single-gpu y multi-gpu porque usa domposmin. 
//------------------------------------------------------------------------------
template<bool varspre> __global__ void KerPeriodicDuplicateSymplectic(unsigned n,unsigned pini
  ,uint3 cellmax,double3 perinc,const unsigned *listp,unsigned *idp,typecode *code,unsigned *dcell
  ,double2 *posxy,double *posz,float4 *velrhop,tsymatrix3f *spstau,double2 *posxypre,double *poszpre,float4 *velrhoppre)
{
  const unsigned p=blockIdx.x*blockDim.x + threadIdx.x; //-Number of particle.
  if(p<n){
    const unsigned pnew=p+pini;
    const unsigned rp=listp[p];
    const unsigned pcopy=(rp&0x7FFFFFFF);
    //-Adjusts cell position of the new particles.
    //-Ajusta posicion y celda de nueva particula.
    KerPeriodicDuplicatePos(pnew,pcopy,(rp>=0x80000000),perinc.x,perinc.y,perinc.z,cellmax,posxy,posz,dcell);
    //-Copies the remaining data.
    //-Copia el resto de datos.
    idp[pnew]=idp[pcopy];
    code[pnew]=CODE_SetPeriodic(code[pcopy]);
    velrhop[pnew]=velrhop[pcopy];
    if(varspre){
      posxypre[pnew]=posxypre[pcopy];
      poszpre[pnew]=poszpre[pcopy];
      velrhoppre[pnew]=velrhoppre[pcopy];
    }
    if(spstau)spstau[pnew]=spstau[pcopy];
  }
}

//==============================================================================
/// Creates periodic particles from a list of particles to duplicate.
/// Crea particulas periodicas a partir de una lista con las particulas a duplicar.
//==============================================================================
void PeriodicDuplicateSymplectic(unsigned n,unsigned pini
  ,tuint3 domcells,tdouble3 perinc,const unsigned *listp,unsigned *idp,typecode *code,unsigned *dcell
  ,double2 *posxy,double *posz,float4 *velrhop,tsymatrix3f *spstau,double2 *posxypre,double *poszpre,float4 *velrhoppre)
{
  if(n){
    uint3 cellmax=make_uint3(domcells.x-1,domcells.y-1,domcells.z-1);
    dim3 sgrid=GetSimpleGridSize(n,SPHBSIZE);
    if(posxypre!=NULL)KerPeriodicDuplicateSymplectic<true>  <<<sgrid,SPHBSIZE>>> (n,pini,cellmax,Double3(perinc),listp,idp,code,dcell,posxy,posz,velrhop,spstau,posxypre,poszpre,velrhoppre);
    else              KerPeriodicDuplicateSymplectic<false> <<<sgrid,SPHBSIZE>>> (n,pini,cellmax,Double3(perinc),listp,idp,code,dcell,posxy,posz,velrhop,spstau,posxypre,poszpre,velrhoppre);
  }
}

//------------------------------------------------------------------------------
/// Creates periodic particles from a list of particles to duplicate.
/// It is assumed that all particles are valid.
/// This kernel applies to single-GPU and multi-GPU because it uses domposmin.
///
/// Crea particulas periodicas a partir de una lista con las particulas a duplicar.
/// Se presupone que todas las particulas son validas.
/// Este kernel vale para single-gpu y multi-gpu porque usa domposmin. 
//------------------------------------------------------------------------------
__global__ void KerPeriodicDuplicateNormals(unsigned n,unsigned pini,const unsigned *listp,float3 *normals,float3 *motionvel)
{
  const unsigned p=blockIdx.x*blockDim.x + threadIdx.x; //-Number of particle.
  if(p<n){
    const unsigned pnew=p+pini;
    const unsigned rp=listp[p];
    const unsigned pcopy=(rp&0x7FFFFFFF);
    normals[pnew]=normals[pcopy];
    if(motionvel)motionvel[pnew]=motionvel[pcopy];
  }
}

//==============================================================================
/// Creates periodic particles from a list of particles to duplicate.
/// Crea particulas periodicas a partir de una lista con las particulas a duplicar.
//==============================================================================
void PeriodicDuplicateNormals(unsigned n,unsigned pini,const unsigned *listp,float3 *normals,float3 *motionvel)
{
  if(n){
    dim3 sgrid=GetSimpleGridSize(n,SPHBSIZE);
    KerPeriodicDuplicateNormals <<<sgrid,SPHBSIZE>>> (n,pini,listp,normals,motionvel);
  }
}

//##############################################################################
//# Kernels for Damping.
//##############################################################################
//------------------------------------------------------------------------------
/// Returns TRUE when code==NULL or particle is normal and fluid.
//------------------------------------------------------------------------------
__device__ bool KerIsNormalFluid(const typecode *code,unsigned p){
  if(code){//-Descarta particulas floating o periodicas.
    const typecode cod=code[p];
    return(CODE_IsNormal(cod) && CODE_IsFluid(cod));
  }
  return(true);
}
//------------------------------------------------------------------------------
/// Checks position is inside box limits.
/// Comprueba si la posicion esta dentro de los limites.
//------------------------------------------------------------------------------
__device__ bool KerPointInBox(double px,double py,double pz,const double3 &p1,const double3 &p2)
{
  return(p1.x<=px && p1.y<=py && p1.z<=pz && px<=p2.x && py<=p2.y && pz<=p2.z);
}
//------------------------------------------------------------------------------
/// Solves point on the plane.
/// Resuelve punto en el plano.
//------------------------------------------------------------------------------
__device__ double KerPointPlane(const double4 &pla,double px,double py,double pz)
{
  return(pla.x*px+pla.y*py+pla.z*pz+pla.w);
}
//------------------------------------------------------------------------------
/// Solves point on the plane.
/// Resuelve punto en el plano.
//------------------------------------------------------------------------------
__device__ double KerPointPlane(const double4 &pla,const double3 &pt)
{
  return(pla.x*pt.x+pla.y*pt.y+pla.z*pt.z+pla.w);
}

//------------------------------------------------------------------------------
/// Applies Damping.
/// Aplica Damping.
//------------------------------------------------------------------------------
__global__ void KerComputeDampingPlane(unsigned n,unsigned pini
  ,double dt,double4 plane,float dist,float over,float3 factorxyz,float redumax
  ,const double2 *posxy,const double *posz,const typecode *code
  ,float4 *velrhop)
{
  unsigned p=blockIdx.x*blockDim.x + threadIdx.x; //-Number of particle.
  if(p<n){
    const unsigned p1=p+pini;
    const bool ok=KerIsNormalFluid(code,p1);//-Ignore floating and periodic particles. | Descarta particulas floating o periodicas.
    if(ok){
      const double2 rposxy=posxy[p1];
      const double rposz=posz[p1];
      double vdis=KerPointPlane(plane,rposxy.x,rposxy.y,rposz);  //fgeo::PlanePoint(plane,ps);
      if(0<vdis && vdis<=dist+over){
        const double fdis=(vdis>=dist? 1.: vdis/dist);
        const double redudt=dt*(fdis*fdis)*redumax;
        double redudtx=(1.-redudt*factorxyz.x);
        double redudty=(1.-redudt*factorxyz.y);
        double redudtz=(1.-redudt*factorxyz.z);
        redudtx=(redudtx<0? 0.: redudtx);
        redudty=(redudty<0? 0.: redudty);
        redudtz=(redudtz<0? 0.: redudtz);
        float4 rvel=velrhop[p1];
        rvel.x=float(redudtx*rvel.x); 
        rvel.y=float(redudty*rvel.y); 
        rvel.z=float(redudtz*rvel.z);
        velrhop[p1]=rvel;
      }
    }
  }
}
//==============================================================================
/// Applies Damping.
/// Aplica Damping.
//==============================================================================
void ComputeDampingPlane(double dt,double4 plane,float dist,float over
  ,float3 factorxyz,float redumax,unsigned n,unsigned pini
  ,const double2 *posxy,const double *posz,const typecode *code,float4 *velrhop)
{
  if(n){
    dim3 sgridf=GetSimpleGridSize(n,SPHBSIZE);
    KerComputeDampingPlane <<<sgridf,SPHBSIZE>>> (n,pini,dt,plane,dist,over
      ,factorxyz,redumax,posxy,posz,code,velrhop);
  }
}

//------------------------------------------------------------------------------
/// Applies Damping to limited domain.
/// Aplica Damping limitado a un dominio.
//------------------------------------------------------------------------------
__global__ void KerComputeDampingPlaneDom(unsigned n,unsigned pini
  ,double dt,double4 plane,float dist,float over,float3 factorxyz,float redumax
  ,double zmin,double zmax,double4 pla0,double4 pla1,double4 pla2,double4 pla3
  ,const double2 *posxy,const double *posz,const typecode *code
  ,float4 *velrhop)
{
  unsigned p=blockIdx.x*blockDim.x + threadIdx.x; //-Number of particle.
  if(p<n){
    const unsigned p1=p+pini;
    const bool ok=KerIsNormalFluid(code,p1);//-Ignore floating and periodic particles. | Descarta particulas floating o periodicas.
    if(ok){
      const double2 rposxy=posxy[p1];
      const double rposz=posz[p1];
      const double3 ps=make_double3(rposxy.x,rposxy.y,rposz);
      double vdis=KerPointPlane(plane,ps);  //fgeo::PlanePoint(plane,ps);
      if(0<vdis && vdis<=dist+over){
        if(ps.z>=zmin && ps.z<=zmax && KerPointPlane(pla0,ps)<=0 && KerPointPlane(pla1,ps)<=0 && KerPointPlane(pla2,ps)<=0 && KerPointPlane(pla3,ps)<=0){
          const double fdis=(vdis>=dist? 1.: vdis/dist);
          const double redudt=dt*(fdis*fdis)*redumax;
          double redudtx=(1.-redudt*factorxyz.x);
          double redudty=(1.-redudt*factorxyz.y);
          double redudtz=(1.-redudt*factorxyz.z);
          redudtx=(redudtx<0? 0.: redudtx);
          redudty=(redudty<0? 0.: redudty);
          redudtz=(redudtz<0? 0.: redudtz);
          float4 rvel=velrhop[p1];
          rvel.x=float(redudtx*rvel.x); 
          rvel.y=float(redudty*rvel.y); 
          rvel.z=float(redudtz*rvel.z); 
          velrhop[p1]=rvel;
        }
      }
    }
  }
}
//==============================================================================
/// Applies Damping to limited domain.
/// Aplica Damping limitado a un dominio.
//==============================================================================
void ComputeDampingPlaneDom(double dt,double4 plane,float dist,float over
  ,float3 factorxyz,float redumax
  ,double zmin,double zmax,double4 pla0,double4 pla1,double4 pla2,double4 pla3
  ,unsigned n,unsigned pini,const double2 *posxy,const double *posz,const typecode *code
  ,float4 *velrhop)
{
  if(n){
    dim3 sgridf=GetSimpleGridSize(n,SPHBSIZE);
    KerComputeDampingPlaneDom <<<sgridf,SPHBSIZE>>> (n,pini,dt,plane,dist,over,factorxyz
      ,redumax,zmin,zmax,pla0,pla1,pla2,pla3,posxy,posz,code,velrhop);
  }
}


//------------------------------------------------------------------------------
/// Applies Damping according box configuration.
/// Aplica Damping segun cofiguracion de caja.
//------------------------------------------------------------------------------
__global__ void KerComputeDampingBox(unsigned n,unsigned pini
  ,double dt,float3 factorxyz,float redumax
  ,double3 limitmin1,double3 limitmin2,double3 limitmax1,double3 limitmax2
  ,double3 limitover1,double3 limitover2,double3 boxsize1,double3 boxsize2
  ,const double2 *posxy,const double *posz,const typecode *code
  ,float4 *velrhop)
{
  unsigned p=blockIdx.x*blockDim.x + threadIdx.x; //-Number of particle.
  if(p<n){
    const unsigned p1=p+pini;
    const bool ok=KerIsNormalFluid(code,p1);//-Ignore floating and periodic particles. | Descarta particulas floating o periodicas.
    if(ok){
      const double2 rposxy=posxy[p1];
      const double rposz=posz[p1];
      //-Check if it is within the domain. | Comprueba si esta dentro del dominio.
      if(KerPointInBox(rposxy.x,rposxy.y,rposz,limitover1,limitover2)){//-Inside overlimit domain.
        if(!KerPointInBox(rposxy.x,rposxy.y,rposz,limitmin1,limitmin2)){//-Outside free domain.
          double fdis=1.;
          if(KerPointInBox(rposxy.x,rposxy.y,rposz,limitmax1,limitmax2)){//-Compute damping coefficient.
            fdis=0;
            if(boxsize2.z){ const double fdiss=(rposz   -limitmin2.z)/boxsize2.z; fdis=(fdis>=fdiss? fdis: fdiss); }
            if(boxsize2.y){ const double fdiss=(rposxy.y-limitmin2.y)/boxsize2.y; fdis=(fdis>=fdiss? fdis: fdiss); }
            if(boxsize2.x){ const double fdiss=(rposxy.x-limitmin2.x)/boxsize2.x; fdis=(fdis>=fdiss? fdis: fdiss); }
            if(boxsize1.z){ const double fdiss=(limitmin1.z-rposz   )/boxsize1.z; fdis=(fdis>=fdiss? fdis: fdiss); }
            if(boxsize1.y){ const double fdiss=(limitmin1.y-rposxy.y)/boxsize1.y; fdis=(fdis>=fdiss? fdis: fdiss); }
            if(boxsize1.x){ const double fdiss=(limitmin1.x-rposxy.x)/boxsize1.x; fdis=(fdis>=fdiss? fdis: fdiss); }
          }
          const double redudt=dt*(fdis*fdis)*redumax;
          double redudtx=(1.-redudt*factorxyz.x);
          double redudty=(1.-redudt*factorxyz.y);
          double redudtz=(1.-redudt*factorxyz.z);
          redudtx=(redudtx<0? 0.: redudtx);
          redudty=(redudty<0? 0.: redudty);
          redudtz=(redudtz<0? 0.: redudtz);
          float4 rvel=velrhop[p1];
          rvel.x=float(redudtx*rvel.x); 
          rvel.y=float(redudty*rvel.y); 
          rvel.z=float(redudtz*rvel.z);
          //rvel.x=rvel.y=rvel.z=0;
          velrhop[p1]=rvel;
        }
      }
    }
  }
}
//==============================================================================
/// Applies Damping according box configuration.
/// Aplica Damping segun cofiguracion de caja.
//==============================================================================
void ComputeDampingBox(unsigned n,unsigned pini,double dt,float3 factorxyz,float redumax
  ,double3 limitmin1,double3 limitmin2,double3 limitmax1,double3 limitmax2
  ,double3 limitover1,double3 limitover2,double3 boxsize1,double3 boxsize2
  ,const double2 *posxy,const double *posz,const typecode *code,float4 *velrhop)
{
  if(n){
    dim3 sgridf=GetSimpleGridSize(n,SPHBSIZE);
    KerComputeDampingBox <<<sgridf,SPHBSIZE>>> (n,pini,dt,factorxyz,redumax
      ,limitmin1,limitmin2,limitmax1,limitmax2,limitover1,limitover2,boxsize1,boxsize2
      ,posxy,posz,code,velrhop);
  }
}


//------------------------------------------------------------------------------
/// Applies Damping to limited cylinder domain.
/// Aplica Damping limitado a un dominio de cilindro.
//------------------------------------------------------------------------------
__global__ void KerComputeDampingCylinder(unsigned n,unsigned pini
  ,double dt,bool isvertical,double3 point1,double3 point2,double limitmin
  ,float dist,float over,float3 factorxyz,float redumax
  ,const double2 *posxy,const double *posz,const typecode *code
  ,float4 *velrhop)
{
  unsigned p=blockIdx.x*blockDim.x + threadIdx.x; //-Number of particle.
  if(p<n){
    const unsigned p1=p+pini;
    const bool ok=KerIsNormalFluid(code,p1);//-Ignore floating and periodic particles. | Descarta particulas floating o periodicas.
    if(ok){
      //-Check if it is within the domain. | Comprueba si esta dentro del dominio.
      const double2 rposxy=posxy[p1];
      const double rposz=posz[p1];
      const double3 ps=make_double3(rposxy.x,rposxy.y,rposz);
      const double vdis=(isvertical? 
        sqrt((ps.x-point1.x)*(ps.x-point1.x)+(ps.y-point1.y)*(ps.y-point1.y)): 
        cugeo::LinePointDist(ps,point1,point2)
        ) - limitmin;
      if(0<vdis && vdis<=dist+over){
        const double fdis=(vdis>=dist? 1.: vdis/dist);
        const double redudt=dt*(fdis*fdis)*redumax;
        double redudtx=(1.-redudt*factorxyz.x);
        double redudty=(1.-redudt*factorxyz.y);
        double redudtz=(1.-redudt*factorxyz.z);
        redudtx=(redudtx<0? 0.: redudtx);
        redudty=(redudty<0? 0.: redudty);
        redudtz=(redudtz<0? 0.: redudtz);
        float4 rvel=velrhop[p1];
        rvel.x=float(redudtx*rvel.x); 
        rvel.y=float(redudty*rvel.y); 
        rvel.z=float(redudtz*rvel.z); 
        velrhop[p1]=rvel;
      }
    }
  }
}
//==============================================================================
/// Applies Damping to limited cylinder domain.
/// Aplica Damping limitado a un dominio de cilindro.
//==============================================================================
void ComputeDampingCylinder(unsigned n,unsigned pini
  ,double dt,double3 point1,double3 point2,double limitmin
  ,float dist,float over,float3 factorxyz,float redumax
  ,const double2 *posxy,const double *posz,const typecode *code
  ,float4 *velrhop)
{
  if(n){
    const bool isvertical=(point1.x==point2.x && point1.y==point2.y);
    dim3 sgridf=GetSimpleGridSize(n,SPHBSIZE);
    KerComputeDampingCylinder <<<sgridf,SPHBSIZE>>> (n,pini,dt
      ,isvertical,point1,point2,limitmin,dist,over,factorxyz,redumax
      ,posxy,posz,code,velrhop);
  }
}


}


//##############################################################################
//# Kernels for InOut (JSphInOut).
//# Kernels para InOut (JSphInOut).
//##############################################################################
#include "JSphGpu_InOut_iker.cu"


